 
data_shelxl
 
_audit_creation_method            'SHELXL-2018/3'
_shelx_SHELXL_version_number      '2018/3'
_chemical_name_systematic         ?
_chemical_name_common             ?
_chemical_melting_point           ?
_chemical_formula_moiety          ?
_chemical_formula_sum
 'C38 N4 O2' 
_chemical_formula_weight          544.44

loop_
 _atom_type_symbol
 _atom_type_description
 _atom_type_scat_dispersion_real
 _atom_type_scat_dispersion_imag
 _atom_type_scat_source
 'C'  'C'   0.0000   0.0000
 'International Tables Vol C Tables 4.2.6.8 and 6.1.1.4'
 'N'  'N'   0.0000   0.0000
 'International Tables Vol C Tables 4.2.6.8 and 6.1.1.4'
 'O'  'O'   0.0000   0.0000
 'International Tables Vol C Tables 4.2.6.8 and 6.1.1.4'
 
_space_group_crystal_system       monoclinic
_space_group_IT_number            4
_space_group_name_H-M_alt         'P 21'
_space_group_name_Hall            'P 2yb'
 
_shelx_space_group_comment
;
The symmetry employed for this shelxl refinement is uniquely defined
by the following loop, which should always be used as a source of
symmetry information in preference to the above space-group names.
They are only intended as comments.
;
 
loop_
 _space_group_symop_operation_xyz
 'x, y, z'
 '-x, y+1/2, -z'
 
_cell_length_a                    10.773
_cell_length_b                    7.311
_cell_length_c                    11.151
_cell_angle_alpha                 90
_cell_angle_beta                  108.07
_cell_angle_gamma                 90
_cell_volume                      835.0
_cell_formula_units_Z             1
_cell_measurement_temperature     293(2)
_cell_measurement_reflns_used     ?
_cell_measurement_theta_min       ?
_cell_measurement_theta_max       ?
 
_exptl_crystal_description        ?
_exptl_crystal_colour             ?
_exptl_crystal_density_meas       ?
_exptl_crystal_density_method     ?
_exptl_crystal_density_diffrn     1.083          
_exptl_crystal_F_000              108
_exptl_transmission_factor_min    ?
_exptl_transmission_factor_max    ?
_exptl_crystal_size_max           ?
_exptl_crystal_size_mid           ?
_exptl_crystal_size_min           ?
_exptl_absorpt_coefficient_mu     0.000
_shelx_estimated_absorpt_T_min    ?
_shelx_estimated_absorpt_T_max    ?
_exptl_absorpt_correction_type    ?
_exptl_absorpt_correction_T_min   ?
_exptl_absorpt_correction_T_max   ?
_exptl_absorpt_process_details    ?
_exptl_absorpt_special_details    ?
_diffrn_ambient_temperature       293(2)
_diffrn_radiation_wavelength      0.02508
_diffrn_radiation_type            ?
_diffrn_source                    ?
_diffrn_measurement_device_type   ?
_diffrn_measurement_method        ?
_diffrn_detector_area_resol_mean  ?
_diffrn_reflns_number             1933
_diffrn_reflns_av_unetI/netI      0.1624
_diffrn_reflns_av_R_equivalents   0.1008
_diffrn_reflns_limit_h_min        -9
_diffrn_reflns_limit_h_max        10
_diffrn_reflns_limit_k_min        -7
_diffrn_reflns_limit_k_max        7
_diffrn_reflns_limit_l_min        -11
_diffrn_reflns_limit_l_max        11
_diffrn_reflns_theta_min          0.068
_diffrn_reflns_theta_max          0.726
_diffrn_reflns_theta_full         0.726
_diffrn_measured_fraction_theta_max   0.700
_diffrn_measured_fraction_theta_full  0.700
_diffrn_reflns_Laue_measured_fraction_max    0.700
_diffrn_reflns_Laue_measured_fraction_full   0.700
_diffrn_reflns_point_group_measured_fraction_max   0.709
_diffrn_reflns_point_group_measured_fraction_full  0.709
_reflns_number_total              1278
_reflns_number_gt                 861
_reflns_threshold_expression      'I > 2\s(I)'
_reflns_Friedel_coverage          0.841
_reflns_Friedel_fraction_max      0.720
_reflns_Friedel_fraction_full     0.720
 
_reflns_special_details
;
 Reflections were merged by SHELXL according to the crystal
 class for the calculation of statistics and refinement.
 
 _reflns_Friedel_fraction is defined as the number of unique
 Friedel pairs measured divided by the number that would be
 possible theoretically, ignoring centric projections and
 systematic absences.
;
 
_computing_data_collection        ?
_computing_cell_refinement        ?
_computing_data_reduction         ?
_computing_structure_solution     ?
_computing_structure_refinement 'SHELXL-2018/3 (Sheldrick, 2018)'
_computing_molecular_graphics     ?
_computing_publication_material   ?
_refine_special_details           ?
_refine_ls_structure_factor_coef  Fsqd
_refine_ls_matrix_type            full
_refine_ls_weighting_scheme       calc
_refine_ls_weighting_details
'w=1/[\s^2^(Fo^2^)+(0.2000P)^2^] where P=(Fo^2^+2Fc^2^)/3'
_atom_sites_solution_primary      ?
_atom_sites_solution_secondary    ?
_atom_sites_solution_hydrogens    .
_refine_ls_hydrogen_treatment     undef
_refine_ls_extinction_method      none
_refine_ls_extinction_coef        .
_refine_ls_abs_structure_details
;
 All f" are zero, so absolute structure could not be determined
;
_refine_ls_abs_structure_Flack    ?
_chemical_absolute_configuration  ?
_refine_ls_number_reflns          1278
_refine_ls_number_parameters      89
_refine_ls_number_restraints      1
_refine_ls_R_factor_all           0.2098
_refine_ls_R_factor_gt            0.1755
_refine_ls_wR_factor_ref          0.4408
_refine_ls_wR_factor_gt           0.4093
_refine_ls_goodness_of_fit_ref    1.410
_refine_ls_restrained_S_all       1.409
_refine_ls_shift/su_max           0.000
_refine_ls_shift/su_mean          0.000
 
loop_
 _atom_site_label
 _atom_site_type_symbol
 _atom_site_fract_x
 _atom_site_fract_y
 _atom_site_fract_z
 _atom_site_U_iso_or_equiv
 _atom_site_adp_type
 _atom_site_occupancy
 _atom_site_site_symmetry_order  
 _atom_site_calc_flag
 _atom_site_refinement_flags_posn
 _atom_site_refinement_flags_adp
 _atom_site_refinement_flags_occupancy
 _atom_site_disorder_assembly
 _atom_site_disorder_group
N001 N 0.891(3) 0.343(2) 0.3362(19) 0.040(5) Uiso 1 1 d . . . . .
C002 C 0.579(4) 0.817(3) 0.588(3) 0.060(7) Uiso 1 1 d . . . . .
C003 C 0.695(4) 0.540(3) 0.267(3) 0.071(8) Uiso 1 1 d . . . . .
C004 C 0.752(3) 0.615(3) 0.557(2) 0.038(6) Uiso 1 1 d . . . . .
C005 C 0.674(4) 0.788(4) 0.529(3) 0.072(8) Uiso 1 1 d . . . . .
C10 C 0.717(3) 0.488(3) 0.639(2) 0.040(6) Uiso 1 1 d . . . . .
O9 O 0.905(3) 0.739(3) 0.457(2) 0.057(6) Uiso 1 1 d . . . . .
C7 C 0.834(4) 0.498(3) 0.130(3) 0.061(8) Uiso 1 1 d . . . . .
N13 N 0.552(4) 0.705(3) 0.660(3) 0.076(8) Uiso 1 1 d . . . . .
C5 C 0.860(3) 0.582(3) 0.495(2) 0.044(6) Uiso 1 1 d . . . . .
C2 C 0.787(3) 0.444(2) 0.3777(19) 0.037(6) Uiso 1 1 d . . . . .
C3 C 0.828(4) 0.175(4) 0.263(3) 0.071(8) Uiso 1 1 d . . . . .
C8 C 0.710(4) 0.446(3) 0.143(3) 0.065(8) Uiso 1 1 d . . . . .
C6 C 0.696(4) 0.237(4) 0.162(3) 0.071(9) Uiso 1 1 d . . . . .
C4 C 0.939(4) 0.452(3) 0.257(2) 0.058(7) Uiso 1 1 d . . . . .
C14 C 0.571(4) 0.407(3) 0.772(2) 0.063(8) Uiso 1 1 d . . . . .
C11 C 0.618(4) 0.539(3) 0.688(2) 0.056(7) Uiso 1 1 d . . . . .
C16 C 0.643(4) 0.247(3) 0.799(3) 0.066(8) Uiso 1 1 d . . . . .
C15 C 0.745(4) 0.196(4) 0.752(3) 0.068(8) Uiso 1 1 d . . . . .
C12 C 0.784(4) 0.321(3) 0.671(2) 0.051(7) Uiso 1 1 d . . . . .
C00L C 0.864(8) 0.758(8) -0.009(5) 0.158(19) Uiso 1 1 d . . . . .
C1 C 0.838(5) 0.692(4) 0.086(3) 0.089(10) Uiso 1 1 d . . . . .
 
_geom_special_details
;
 All esds (except the esd in the dihedral angle between two l.s. planes)
 are estimated using the full covariance matrix.  The cell esds are taken
 into account individually in the estimation of esds in distances, angles
 and torsion angles; correlations between esds in cell parameters are only
 used when they are defined by crystal symmetry.  An approximate (isotropic)
 treatment of cell esds is used for estimating esds involving l.s. planes.
;
 
loop_
 _geom_bond_atom_site_label_1
 _geom_bond_atom_site_label_2
 _geom_bond_distance
 _geom_bond_site_symmetry_2
 _geom_bond_publ_flag
N001 C2 1.54(4) . ?
N001 C4 1.40(3) . ?
N001 C3 1.51(4) . ?
C002 N13 1.24(3) . ?
C002 C005 1.40(5) . ?
C003 C8 1.60(3) . ?
C003 C2 1.49(4) . ?
C004 C10 1.44(3) . ?
C004 C005 1.49(4) . ?
C004 C5 1.54(4) . ?
C10 C12 1.40(4) . ?
C10 C11 1.39(4) . ?
O9 C5 1.37(3) . ?
C7 C4 1.55(5) . ?
C7 C8 1.44(5) . ?
C7 C1 1.50(4) . ?
N13 C11 1.39(4) . ?
C5 C2 1.64(3) . ?
C3 C6 1.58(6) . ?
C8 C6 1.56(4) . ?
C14 C16 1.38(5) . ?
C14 C11 1.54(3) . ?
C16 C15 1.40(5) . ?
C15 C12 1.44(3) . ?
C00L C1 1.27(5) . ?
 
loop_
 _geom_angle_atom_site_label_1
 _geom_angle_atom_site_label_2
 _geom_angle_atom_site_label_3
 _geom_angle
 _geom_angle_site_symmetry_1
 _geom_angle_site_symmetry_3
 _geom_angle_publ_flag
C2 N001 C4 111.1(18) . . ?
C2 N001 C3 108(2) . . ?
C4 N001 C3 108.3(17) . . ?
N13 C002 C005 124(3) . . ?
C8 C003 C2 107(2) . . ?
C10 C004 C005 116(2) . . ?
C10 C004 C5 124(2) . . ?
C005 C004 C5 119.5(19) . . ?
C004 C005 C002 118(2) . . ?
C004 C10 C12 121(2) . . ?
C004 C10 C11 117(2) . . ?
C12 C10 C11 122.1(19) . . ?
C4 C7 C8 107(2) . . ?
C4 C7 C1 115(3) . . ?
C8 C7 C1 114(3) . . ?
C002 N13 C11 121(3) . . ?
O9 C5 C2 113.4(16) . . ?
O9 C5 C004 113.4(18) . . ?
C2 C5 C004 102(2) . . ?
N001 C2 C5 109(2) . . ?
N001 C2 C003 109.9(18) . . ?
C5 C2 C003 113.6(17) . . ?
C6 C3 N001 108(2) . . ?
C7 C8 C003 109(3) . . ?
C7 C8 C6 114(3) . . ?
C003 C8 C6 105(2) . . ?
C3 C6 C8 106(3) . . ?
N001 C4 C7 113(3) . . ?
C16 C14 C11 113(3) . . ?
N13 C11 C10 124(2) . . ?
N13 C11 C14 116(3) . . ?
C10 C11 C14 120(2) . . ?
C14 C16 C15 126(3) . . ?
C16 C15 C12 119(3) . . ?
C15 C12 C10 119(3) . . ?
C00L C1 C7 132(4) . . ?
 
loop_
 _geom_torsion_atom_site_label_1
 _geom_torsion_atom_site_label_2
 _geom_torsion_atom_site_label_3
 _geom_torsion_atom_site_label_4
 _geom_torsion
 _geom_torsion_site_symmetry_1
 _geom_torsion_site_symmetry_2
 _geom_torsion_site_symmetry_3
 _geom_torsion_site_symmetry_4
 _geom_torsion_publ_flag
C10 C004 C005 C002 3(4) . . . . ?
C5 C004 C005 C002 -179(3) . . . . ?
N13 C002 C005 C004 -2(5) . . . . ?
C005 C004 C10 C12 180(3) . . . . ?
C5 C004 C10 C12 1(4) . . . . ?
C005 C004 C10 C11 -2(4) . . . . ?
C5 C004 C10 C11 179(3) . . . . ?
C005 C002 N13 C11 1(5) . . . . ?
C10 C004 C5 O9 -159(2) . . . . ?
C005 C004 C5 O9 22(4) . . . . ?
C10 C004 C5 C2 78(3) . . . . ?
C005 C004 C5 C2 -100(3) . . . . ?
C4 N001 C2 C5 -81(2) . . . . ?
C3 N001 C2 C5 160.6(17) . . . . ?
C4 N001 C2 C003 44(3) . . . . ?
C3 N001 C2 C003 -74(3) . . . . ?
O9 C5 C2 N001 78(3) . . . . ?
C004 C5 C2 N001 -159.6(16) . . . . ?
O9 C5 C2 C003 -45(3) . . . . ?
C004 C5 C2 C003 78(3) . . . . ?
C8 C003 C2 N001 19(3) . . . . ?
C8 C003 C2 C5 141(2) . . . . ?
C2 N001 C3 C6 49(2) . . . . ?
C4 N001 C3 C6 -72(3) . . . . ?
C4 C7 C8 C003 53(3) . . . . ?
C1 C7 C8 C003 -75(3) . . . . ?
C4 C7 C8 C6 -64(3) . . . . ?
C1 C7 C8 C6 168(2) . . . . ?
C2 C003 C8 C7 -71(3) . . . . ?
C2 C003 C8 C6 51(4) . . . . ?
N001 C3 C6 C8 21(3) . . . . ?
C7 C8 C6 C3 45(3) . . . . ?
C003 C8 C6 C3 -74(3) . . . . ?
C2 N001 C4 C7 -65(3) . . . . ?
C3 N001 C4 C7 54(3) . . . . ?
C8 C7 C4 N001 12(3) . . . . ?
C1 C7 C4 N001 139(2) . . . . ?
C002 N13 C11 C10 0(5) . . . . ?
C002 N13 C11 C14 -176(3) . . . . ?
C004 C10 C11 N13 0(4) . . . . ?
C12 C10 C11 N13 179(3) . . . . ?
C004 C10 C11 C14 177(2) . . . . ?
C12 C10 C11 C14 -5(4) . . . . ?
C16 C14 C11 N13 -178(3) . . . . ?
C16 C14 C11 C10 5(4) . . . . ?
C11 C14 C16 C15 -5(5) . . . . ?
C14 C16 C15 C12 3(6) . . . . ?
C16 C15 C12 C10 -2(5) . . . . ?
C004 C10 C12 C15 -179(3) . . . . ?
C11 C10 C12 C15 3(4) . . . . ?
C4 C7 C1 C00L 115(7) . . . . ?
C8 C7 C1 C00L -122(7) . . . . ?
 
_refine_diff_density_max    0.185
_refine_diff_density_min   -0.180
_refine_diff_density_rms    0.052

_shelx_res_file
;
TITL XKN in P2(1)
    shelxl.res
    created by SHELXL-2018/3 at 21:46:43 on 13-Feb-2025
CELL 0.02508 10.773 7.311 11.151 90 108.069 90
ZERR 1 0 0 0 0 0 0
LATT -1
SYMM -X,0.5+Y,-Z
SFAC  C 0.136 0.373 0.548 3.281 1.227 13.046 0.597 41.02 0 0 0 0 0.75 12.011
SFAC  N 0.137 0.329 0.534 2.673 1.086 10.316 0.455 32.763 0 0 0 0 0.71 14.007
SFAC  O 0.143 0.305 0.51 2.268 0.937 8.262 0.392 25.665 0 0 0 0 0.63 15.999
UNIT 38 4 2

L.S. 100
PLAN  26
CONF
list 3
MORE -1
fmap 2 53
acta
REM <olex2.extras>
REM <HklSrc "%.\\shelxl.hkl">
REM </olex2.extras>

WGHT    0.200000
FVAR      40.15000
N001  2    0.891272    0.342928    0.336205    11.00000    0.03984
C002  1    0.578810    0.816878    0.588069    11.00000    0.06004
C003  1    0.694561    0.540038    0.267400    11.00000    0.07079
C004  1    0.751783    0.615322    0.556607    11.00000    0.03804
C005  1    0.674186    0.787954    0.528901    11.00000    0.07199
C10   1    0.717126    0.487507    0.639087    11.00000    0.04033
O9    3    0.905467    0.739331    0.457293    11.00000    0.05673
C7    1    0.833838    0.498494    0.130339    11.00000    0.06140
N13   2    0.552021    0.705296    0.659888    11.00000    0.07576
C5    1    0.859530    0.581904    0.495047    11.00000    0.04423
C2    1    0.786634    0.444460    0.377675    11.00000    0.03718
C3    1    0.828388    0.174799    0.263027    11.00000    0.07119
C8    1    0.709931    0.446308    0.143212    11.00000    0.06548
C6    1    0.696339    0.237213    0.162132    11.00000    0.07137
C4    1    0.938578    0.451861    0.257299    11.00000    0.05771
C14   1    0.570801    0.406891    0.771787    11.00000    0.06282
C11   1    0.618297    0.539319    0.687651    11.00000    0.05585
C16   1    0.643436    0.247370    0.799429    11.00000    0.06566
C15   1    0.744519    0.195869    0.752197    11.00000    0.06773
C12   1    0.783565    0.321155    0.671053    11.00000    0.05080
C00L  1    0.863530    0.758204   -0.008573    11.00000    0.15798
C1    1    0.837909    0.691857    0.086399    11.00000    0.08941
HKLF 4




REM  XKN in P2(1)
REM wR2 = 0.4408, GooF = S = 1.410, Restrained GooF = 1.409 for all data
REM R1 = 0.1755 for 861 Fo > 4sig(Fo) and 0.2098 for all 1278 data
REM 89 parameters refined using 1 restraints

END

WGHT      0.2000      0.0000

REM Highest difference peak  0.185,  deepest hole -0.180,  1-sigma level  0.052
Q1    1   0.7466  0.0851  0.9825  11.00000  0.05    0.18
Q2    1   0.8022  0.0536  0.7781  11.00000  0.05    0.15
Q3    1   0.7238  0.6834  0.2677  11.00000  0.05    0.15
Q4    1   0.6815  0.1038  0.9011  11.00000  0.05    0.14
Q5    1   0.8743  0.9807 -0.0724  11.00000  0.05    0.12
Q6    1   0.7472  0.1441  0.4790  11.00000  0.05    0.12
Q7    1   0.7271  0.9988  0.6046  11.00000  0.05    0.12
Q8    1   0.6634  0.9472 -0.0008  11.00000  0.05    0.12
Q9    1   0.8639  0.8281  0.1844  11.00000  0.05    0.12
Q10   1   0.8930  0.9975  0.1014  11.00000  0.05    0.11
Q11   1   0.5900 -0.0779  0.8741  11.00000  0.05    0.11
Q12   1   0.4044  0.3682  0.8555  11.00000  0.05    0.11
Q13   1   0.9000  0.8537 -0.1362  11.00000  0.05    0.11
Q14   1   0.5613  0.9440  0.8005  11.00000  0.05    0.11
Q15   1   0.8315  1.0378  0.5619  11.00000  0.05    0.11
Q16   1   0.8368  0.0814  0.1845  11.00000  0.05    0.10
Q17   1   0.7445  0.0176  0.1927  11.00000  0.05    0.10
Q18   1   1.0213  0.3976  0.2313  11.00000  0.05    0.10
Q19   1   0.5056  0.2489  0.1743  11.00000  0.05    0.10
Q20   1   0.6134  0.8895  0.6033  11.00000  0.05    0.10
Q21   1   0.7096  0.7890 -0.0399  11.00000  0.05    0.09
Q22   1   0.4635  0.4029  0.7991  11.00000  0.05    0.09
Q23   1   0.5306  0.2628  0.0048  11.00000  0.05    0.09
Q24   1   0.4821  0.3369  0.1365  11.00000  0.05    0.09
Q25   1   0.6239  0.9774  0.5010  11.00000  0.05    0.09
Q26   1   0.7543  0.0638  0.3262  11.00000  0.05    0.08
;
_shelx_res_checksum   47098

_shelx_hkl_file
;
   0   0   1 294847.  37476.   1
   0   0  -1 253127.  32185.   1
   0   0   2 256765.  32736.   1
   0   0  -2 276109.  35189.   1
   0   0   3 186277.  23910.   1
   0   0  -3 186993.  23985.   1
   0   0   4  88537.  11631.   1
   0   0  -4  93221.  12193.   1
   0   0   5  24508. 3717.27   1
   0   0  -5  31358. 4527.41   1
   0   0   6  11948. 2215.21   1
   0   0  -6  15451. 2562.69   1
   0   0   7 1964.73 1288.23   1
   0   0  -7 5434.00 1439.24   1
   0   0   8 3998.34 1448.33   1
   0   0  -8 6354.36 1626.07   1
   0   0   9 7167.26 1952.88   1
   0   0  -9 8782.03 1979.61   1
   0   0  10 5026.17 1755.30   1
   0   0 -10 6591.34 1814.27   1
   0  -1   1  99559.  12734.   1
   0  -1  -1 113502.  14605.   1
   0   1   1 137421.  17638.   1
   0   1  -1 132075.  16856.   1
   0  -1  -2 297878.  38055.   1
   0   1   2 263819.  33756.   1
   0  -1  -3 167346.  21540.   1
   0   1   3 184128.  23698.   1
   0  -1  -4 4632.13 1345.00   1
   0   1   4 7445.57 1826.40   1
   0  -1   5  26911. 3819.23   1
   0  -1  -5  18997. 2962.25   1
   0   1   5  23326. 3568.47   1
   0  -1   6  12948. 2211.63   1
   0  -1  -6  16365. 2663.82   1
   0   1   6  15227. 2589.97   1
   0   1  -6  14847. 2381.65   1
   0  -1   7  24329. 3618.07   1
   0  -1  -7  40204. 5693.02   1
   0   1   7  34279. 5012.40   1
   0   1  -7  37972. 5296.22   1
   0  -1   8  19815. 3232.29   1
   0  -1  -8  14718. 2637.09   1
   0   1   8  22119. 3573.98   1
   0   1  -8  14621. 2535.41   1
   0  -1   9  10940. 2352.44   1
   0  -1  -9 9220.16 2119.87   1
   0   1   9  10829. 2344.45   1
   0   1  -9 7525.48 1865.80   1
   0  -1  10 1320.75 1723.34   1
   0  -1 -10  490.77 1184.62   1
   0   1  10 2328.46 1560.21   1
   0   1 -10 1255.72 1481.67   1
   0  -2   0  59465. 7930.55   1
   0   2   0  60788. 8142.73   1
   0  -2   2  65362. 8509.22   1
   0  -2  -2  67016. 8941.85   1
   0   2   2  47038. 6533.47   1
   0   2  -2  52439. 6899.97   1
   0  -2  -3  26575. 3948.74   1
   0   2   3  23632. 3797.19   1
   0  -2  -4 137751.  17994.   1
   0   2   4 139267.  18203.   1
   0  -2  -5  51667. 7131.43   1
   0   2   5  52328. 7280.24   1
   0  -2  -6  10185. 2068.89   1
   0   2   6  11482. 2255.44   1
   0  -2  -7  270.54 1252.69   1
   0   2   7 1262.61 1260.95   1
   0  -2  -8  21772. 3645.63   1
   0   2   8  21284. 3673.18   1
   0  -2  -9 3240.56 1442.54   1
   0   2   9 4579.77 2013.78   1
   0  -2  10 -305.59 1203.09   1
   0  -2 -10 -283.00 1299.53   1
   0   2  10 1618.35 1606.50   1
   0  -3   1  58225. 7867.17   1
   0  -3  -1  47479. 6530.72   1
   0   3   1  53431. 7269.21   1
   0   3  -1  40314. 5613.11   1
   0  -3   2  36870. 5158.44   1
   0  -3  -2  53899. 7426.28   1
   0   3   2  48085. 6676.76   1
   0   3  -2  48967. 6602.36   1
   0  -3   3  42243. 5753.65   1
   0  -3  -3  51970. 7260.95   1
   0   3   3  44227. 6307.52   1
   0   3  -3  38909. 5307.24   1
   0  -3  -4 1754.75 1334.80   1
   0   3   4 1049.05 1426.29   1
   0  -3  -5 -599.06 1391.84   1
   0   3   5  820.61 1552.49   1
   0  -3  -6 6687.79 1926.70   1
   0   3   6 3064.20 1558.55   1
   0  -3  -7  244.89 1422.43   1
   0   3   7 1711.49 1607.05   1
   0  -3  -8 4582.52 1717.28   1
   0   3   8 4962.79 1955.36   1
   0  -3  -9 2284.10 1522.18   1
   0   3   9 1675.94 1807.38   1
   0  -4   0 127776.  16853.   1
   0   4   0 138798.  18278.   1
   0  -4   1  69248. 9454.39   1
   0  -4  -1  53872. 7555.79   1
   0   4   1  51943. 7271.97   1
   0   4  -1  45798. 6483.87   1
   0  -4   2  51336. 7103.88   1
   0  -4  -2  35630. 5249.37   1
   0   4   2  40948. 5899.69   1
   0   4  -2  54808. 7503.44   1
   0  -4   3  10322. 2001.65   1
   0  -4  -3 4852.57 1673.74   1
   0   4   3 4453.01 1568.20   1
   0   4  -3 7936.06 1635.44   1
   0  -4   4 5274.17 1395.15   1
   0  -4  -4 6767.70 1931.94   1
   0   4   4 4610.08 1758.06   1
   0   4  -4 4103.05 1269.49   1
   0  -4  -5  11055. 2534.30   1
   0   4   5 5571.78 1796.36   1
   0  -4  -6  18217. 3438.96   1
   0   4   6  15729. 3105.54   1
   0  -4  -7 3720.03 1863.05   1
   0   4   7 2714.52 1856.43   1
   0  -4  -8 6996.41 2145.22   1
   0   4   8 4656.93 2045.19   1
   0   4   9  128.49 1441.72   1
   0  -5   1 1104.99 1284.37   1
   0  -5  -1  995.31 1501.79   1
   0   5   1  310.28 1362.36   1
   0   5  -1 1447.78 1238.63   1
   0  -5   2 5122.62 1538.16   1
   0  -5  -2 9346.92 2241.66   1
   0  -5   3 4535.68 1654.72   1
   0  -5  -3 3053.18 1725.82   1
   0   5   3 1000.27 1458.25   1
   0   5  -3 1310.00 1185.17   1
   0   5   4  19981. 3540.92   1
   0   5  -4  15371. 2566.54   1
   0  -5   5  19399. 3127.58   1
   0  -5  -5  28217. 4767.15   1
   0   5   5  23064. 4064.48   1
   0   5  -5  22430. 3438.96   1
   0  -5  -6 4265.63 2010.47   1
   0   5   6 4508.12 2055.11   1
   0  -5  -7 2597.68 1791.68   1
   0   5   7 1488.84 1618.63   1
   0  -6   0 2020.66 1734.36   1
   0   6   0 1381.92 1864.70   1
   0  -6   1  903.55 1592.72   1
   0  -6  -1 1972.44 1462.66   1
   0   6   1 4825.02 1857.53   1
   0   6  -1 2248.00 1348.03   1
   0  -6   2  11353. 2461.83   1
   0  -6  -2 4243.59 1908.51   1
   0   6   2  14040. 2846.51   1
   0   6  -2  12888. 2630.47   1
   0  -6   3  12188. 2590.24   1
   0  -6  -3  14687. 3113.80   1
   0   6   3  15291. 2989.80   1
   0   6  -3  21212. 3573.98   1
   0  -6   4 3171.67 1682.00   1
   0  -6  -4 5712.31 2262.88   1
   0   6   4 7247.17 2161.75   1
   0   6  -4 6795.25 1698.26   1
   0  -6   5 4105.81 1427.94   1
   0  -6  -5  895.56 1934.69   1
   0   6   5 2758.33 1580.05   1
   0   6  -5  779.55 1025.35   1
   0  -6   6 -1071.1 1040.51   1
   0  -6  -6  213.78 1423.26   1
   0   6   6  430.15 1360.98   1
   0   6  -6 -575.36 1016.26   1
   0  -7   1 1775.97 1699.09   1
   0  -7  -1 1547.81 1586.94   1
   0   7   1  -33.12 1423.26   1
   0   7  -1 1387.16 1184.35   1
   0  -7   2 1958.39 1352.16   1
   0  -7  -2 -2218.0 1355.74   1
   0   7   2 -319.92 1335.35   1
   0   7  -2  -35.38 1365.39   1
   0  -7   3 -508.68 1101.13   1
   0  -7  -3  109.95 1452.46   1
   0   7   3 -329.29 1149.35   1
   0   7  -3  -82.69 1194.54   1
   1   0 -10 2269.22 1255.44   1
  -1   0  10  839.07 1389.36   1
   1   0  -9 4251.86 1347.75   1
  -1   0   9 5640.67 1565.44   1
   1   0  -8 6486.63 1529.35   1
  -1   0   8 2904.38 1185.17   1
   1   0  -7  31193. 4447.50   1
  -1   0   7  21055. 3232.29   1
   1   0  -6  25514. 3689.72   1
  -1   0   6  27162. 3929.45   1
   1   0  -5 9393.76 1816.20   1
  -1   0   5  11298. 2017.63   1
   1   0  -4 2810.69 1046.29   1
  -1   0   4 5089.55 1258.47   1
   1   0  -3 2838.24 961.697   1
  -1   0   3 4640.39 1216.31   1
   1   0  -2 175475.  22469.   1
  -1   0   2 172885.  22130.   1
   1   0  -1  28630. 3813.72   1
  -1   0   1  41637. 5453.29   1
   1   0   5  80518.  10667.   1
  -1   0  -5  82226.  10838.   1
   1   0   6  25045. 3841.27   1
  -1   0  -6  25886. 3868.83   1
   1   0   7  18964. 3155.14   1
  -1   0  -7  17528. 2912.65   1
   1   0   8  42188. 6100.85   1
  -1   0  -8  24296. 3810.96   1
   1   0   9 4469.55 1895.84   1
  -1   0  -9 3802.70 1713.69   1
   1   0  10 5720.58 2025.62   1
  -1   0 -10 8815.09 2112.98   1
   1  -1 -10 1385.78 1259.02   1
  -1  -1  10 -319.65 1361.53   1
   1   1 -10  260.59 1254.61   1
  -1   1  10 -1999.2 1666.85   1
   1  -1  -9 1437.03 1409.20   1
  -1  -1   9 -338.38 1257.37   1
   1   1  -9  -52.66 1113.80   1
  -1   1   9 3028.38 1655.83   1
   1  -1  -8 2699.36 1254.34   1
  -1  -1   8 4127.85 1279.69   1
   1   1  -8 2772.11 1123.72   1
  -1   1   8 3945.99 1597.68   1
   1  -1  -7  23373. 3651.14   1
  -1  -1   7  21243. 3182.69   1
   1   1  -7  25434. 3700.74   1
  -1   1   7  18440. 3113.80   1
   1  -1  -6  61752. 8365.93   1
  -1  -1   6  52962. 7068.06   1
   1   1  -6  56214. 7481.39   1
  -1   1   6  51144. 7098.37   1
   1  -1  -5  90658.  11967.   1
  -1  -1   5  80105.  10405.   1
   1   1  -5  76688.  10008.   1
  -1   1   5  87627.  11634.   1
   1  -1  -4  18176. 2879.58   1
  -1  -1   4  21287. 2909.89   1
   1   1  -4  18873. 2637.36   1
  -1   1   4  18432. 3006.33   1
   1  -1  -3 110829.  14439.   1
  -1  -1   3 138468.  17655.   1
   1   1  -3 133480.  17029.   1
  -1   1   3 131083.  17002.   1
   1  -1  -2 627720.  79939.   1
  -1  -1   2 608156.  77349.   1
   1   1  -2 589142.  74897.   1
  -1   1   2 614494.  78286.   1
   1  -1  -1  52687. 7114.90   1
  -1   1   1 103637.  13530.   1
   1  -1   0 458804.  58391.   1
  -1  -1   0 423257.  53844.   1
   1   1   0 460457.  58556.   1
  -1   1   0 737668.  93745.   1
  -1  -1  -1 526866.  67043.   1
   1   1   1 529346.  67401.   1
  -1  -1  -2 999999. 127142.   1
   1   1   2 992835. 126261.   1
  -1  -1  -3 342518.  43841.   1
   1   1   3 304767.  39129.   1
  -1  -1  -4 178093.  23075.   1
   1   1   4 183053.  23789.   1
  -1  -1  -5 8691.09 2133.09   1
   1   1   5  11978. 2307.80   1
  -1  -1  -6 8473.40 2040.78   1
   1   1   6 6216.58 1762.19   1
  -1  -1  -7  178.20 1691.65   1
   1   1   7  724.17 1393.22   1
  -1  -1  -8  11232. 2351.61   1
   1   1   8  17319. 3075.22   1
   1  -1   9 2144.94 1324.88   1
  -1  -1  -9 6133.92 1824.47   1
   1   1   9 2658.03 1528.79   1
   1  -1  10 2835.49 1349.68   1
  -1  -1 -10 2500.69 1426.29   1
   1   1  10 3237.80 1555.52   1
   1  -2 -10 4061.72 1578.67   1
  -1  -2  10 3022.87 1531.00   1
   1   2 -10 -1117.9 1137.78   1
  -1   2  10 1236.15 1680.63   1
   1  -2  -9 4813.99 1787.27   1
  -1  -2   9 6172.49 1733.26   1
   1   2  -9 7869.93 1660.51   1
  -1   2   9 8710.38 2400.38   1
   1  -2  -8  187.54 1532.10   1
  -1  -2   8 2509.78 1332.60   1
   1   2  -8 2998.07 1123.17   1
  -1   2   8 2992.56 1704.60   1
   1  -2  -7 4819.50 1592.17   1
  -1  -2   7  10435. 1833.29   1
   1   2  -7 1951.78 931.936   1
  -1   2   7 -107.85 1370.90   1
   1  -2  -6  12549. 2413.89   1
  -1  -2   6  14307. 2158.99   1
  -1   2   6  13593. 2665.19   1
   1  -2  -5  774.87 1387.16   1
  -1   2   5 -189.61 1477.82   1
   1  -2  -4 -268.09 1336.45   1
  -1   2   4 -3009.1 1640.95   1
   1  -2  -3  31744. 4637.64   1
  -1   2   3  32819. 4924.22   1
   1   2  -2  27638. 3659.41   1
  -1   2   2  35740. 5442.27   1
   1  -2  -1 105649.  13888.   1
  -1  -2   1 108322.  13918.   1
   1   2  -1  76137. 9856.70   1
  -1   2   1  77873.  10419.   1
   1  -2   0  22587. 3549.18   1
  -1  -2   0  24056. 3383.85   1
   1   2   0 9007.98 1653.90   1
  -1   2   0 7947.09 2177.73   1
   1  -2   1  19851. 3061.45   1
  -1  -2  -1  21653. 3166.16   1
   1   2   1  18771. 2981.53   1
  -1   2  -1  24627. 3656.65   1
  -1  -2  -2  58776. 7875.44   1
   1   2   2  56930. 7704.59   1
  -1  -2  -3 205649.  26506.   1
   1   2   3 213695.  27545.   1
  -1  -2  -4  45191. 6293.74   1
   1   2   4  43703. 6125.65   1
  -1  -2  -5  32461. 4758.88   1
   1   2   5  26850. 4083.77   1
  -1  -2  -6  13781. 2630.20   1
   1   2   6  10074. 2155.96   1
  -1  -2  -7 4334.52 1657.20   1
   1   2   7 4317.99 1576.47   1
  -1  -2  -8 4249.10 1792.50   1
   1   2   8 2827.22 1654.72   1
  -1  -2  -9 2965.00 1697.71   1
   1   2   9 2601.26 1888.95   1
   1  -3 -10  426.01 1525.76   1
  -1   3  10 2459.63 1845.69   1
   1  -3  -9 8002.20 2266.46   1
  -1   3   9  13436. 3022.87   1
   1  -3  -8  39598. 6029.20   1
  -1   3   8  40397. 6142.18   1
   1  -3  -7 3458.25 1569.85   1
  -1   3   7 2592.17 1690.00   1
   1  -3  -6 8787.54 2289.06   1
  -1   3   6 3742.07 1724.72   1
   1  -3  -5  20143. 3444.47   1
  -1   3   5  22813. 3750.34   1
   1  -3  -4  45495. 6527.96   1
  -1  -3   4  35216. 4689.99   1
  -1   3   4  35712. 5307.24   1
   1  -3  -3  38385. 5643.42   1
  -1  -3   3  45660. 6087.07   1
   1   3  -3  37063. 4987.60   1
  -1   3   3  45384. 6489.38   1
   1  -3  -2  60402. 8418.29   1
  -1  -3   2  46487. 6186.27   1
   1   3  -2  60209. 7952.60   1
  -1   3   2  49986. 7147.97   1
   1  -3  -1  65142. 8930.83   1
  -1  -3   1  85175.  11119.   1
   1   3  -1  79609.  10411.   1
  -1   3   1  71645. 9751.99   1
   1  -3   0 101901.  13533.   1
  -1  -3   0 145522.  18801.   1
   1   3   0 184431.  23759.   1
  -1   3   0 181124.  23544.   1
   1  -3   1  32791. 4802.97   1
  -1  -3  -1  25974. 3874.34   1
   1   3   1  32736. 4709.28   1
  -1   3  -1  24932. 3797.19   1
   1  -3   2  55580. 7553.04   1
  -1  -3  -2  74814. 9988.97   1
   1   3   2  79085.  10565.   1
  -1   3  -2  69633. 9316.61   1
  -1  -3  -3  12530. 2317.99   1
   1   3   3  13290. 2437.31   1
  -1  -3  -4  16845. 2860.29   1
   1   3   4  18815. 3119.31   1
  -1  -3  -5 1907.41 1313.03   1
   1   3   5  147.04 1246.35   1
  -1  -3  -6 1025.07 1174.98   1
   1   3   6 -536.51 1352.44   1
  -1  -3  -7 9120.96 2131.16   1
   1   3   7  10218. 2309.17   1
  -1  -3  -8 8244.69 2064.48   1
   1   3   8 6296.49 2195.64   1
  -1  -3  -9 5519.42 1709.56   1
   1   3   9 6572.05 1970.79   1
   1  -4  -9  708.73 1481.12   1
  -1   4   9   85.78 1588.04   1
   1  -4  -8 -358.50 1711.76   1
  -1   4   8  -50.92 1702.95   1
   1  -4  -7  13373. 2934.69   1
  -1   4   7 7930.55 2310.00   1
   1  -4  -6 7630.19 2128.96   1
  -1   4   6  10546. 2557.73   1
   1  -4  -5 1776.25 1528.52   1
  -1  -4   5 2630.47 973.821   1
  -1   4   5 2750.34 1527.97   1
   1  -4  -4  17875. 3306.69   1
  -1  -4   4  17322. 2642.05   1
   1   4  -4  16432. 2431.25   1
  -1   4   4  12935. 2649.49   1
   1  -4  -3  41223. 6100.85   1
  -1  -4   3  33122. 4656.93   1
   1   4  -3  45026. 6133.92   1
  -1   4   3  30559. 4747.86   1
   1  -4  -2 7120.41 2255.72   1
  -1  -4   2 4447.50 1459.35   1
   1   4  -2 4802.97 1532.93   1
  -1   4   2  359.88 1780.38   1
   1  -4  -1  17688. 3182.69   1
  -1  -4   1  18010. 2857.53   1
   1   4  -1  19427. 3033.89   1
  -1   4   1  16285. 3061.45   1
   1  -4   0 2049.05 1508.95   1
  -1  -4   0 2345.82 1356.30   1
   1   4   0 3607.05 1332.87   1
  -1   4   0 9793.32 2261.78   1
   1  -4   1  29374. 4530.17   1
  -1  -4  -1  26861. 4075.50   1
   1   4   1  17308. 2909.89   1
  -1   4  -1  15674. 2791.40   1
   1  -4   2  47699. 6690.54   1
  -1  -4  -2  36291. 5287.95   1
   1   4   2  58528. 8054.55   1
  -1   4  -2  43042. 6059.51   1
   1  -4   3  19380. 3124.82   1
  -1  -4  -3  16641. 2962.25   1
   1   4   3  17131. 3014.60   1
  -1   4  -3  22483. 3480.29   1
  -1  -4  -4 4703.77 1671.53   1
   1   4   4 3529.89 1471.75   1
  -1  -4  -5 3306.69 1555.80   1
   1   4   5 5963.07 1827.77   1
  -1  -4  -6  42629. 6340.58   1
   1   4   6  44420. 6574.81   1
  -1  -4  -7 7318.81 2160.37   1
   1   4   7 5648.93 1934.97   1
  -1  -4  -8 2745.11 1604.30   1
   1   4   8 3025.62 1831.36   1
   1  -5  -8  440.07 1338.11   1
  -1   5   8 1933.86 1580.60   1
   1  -5  -7 4301.46 2007.16   1
  -1   5   7  878.75 1819.78   1
   1  -5  -6 1043.26 1839.90   1
  -1  -5   6 3014.60 1388.26   1
  -1   5   6 1736.01 1554.70   1
   1  -5  -5  32516. 5293.46   1
  -1  -5   5  24230. 3620.83   1
   1   5  -5  30504. 4301.46   1
  -1   5   5  36704. 5728.85   1
   1  -5  -4  23139. 4196.74   1
  -1  -5   4  19027. 3055.94   1
   1   5  -4  30890. 4411.68   1
  -1   5   4  21480. 3833.01   1
   1  -5  -3  38936. 6084.31   1
  -1  -5   3  39680. 5618.62   1
   1   5  -3  41554. 5874.89   1
  -1   5   3  39818. 6023.69   1
   1  -5  -2 1468.72 1782.86   1
  -1  -5   2 2101.13 1423.53   1
   1   5  -2  730.50 1383.58   1
  -1   5   2 2338.38 2014.33   1
   1  -5  -1 3910.16 1696.33   1
  -1  -5   1 6665.74 1734.64   1
   1   5  -1 4541.19 1387.43   1
  -1   5   1 4951.77 1753.92   1
   1  -5   0 -844.86 1443.65   1
  -1  -5   0 -1201.2 1163.68   1
   1   5   0  606.50 1121.52   1
  -1   5   0 3243.31 1515.57   1
   1  -5   1 5894.18 1858.09   1
  -1  -5  -1 9531.54 2231.74   1
   1  -5   2 8759.98 2052.63   1
  -1  -5  -2 2418.85 1541.75   1
   1   5   2 6158.72 1735.74   1
  -1   5  -2 4805.73 1573.43   1
   1  -5   3 5836.31 1729.95   1
  -1  -5  -3 7586.10 2119.04   1
   1   5   3 9484.70 2145.77   1
  -1   5  -3 7351.88 1747.31   1
   1  -5   4  34858. 5092.31   1
  -1  -5  -4  40727. 6211.07   1
   1   5   4  26845. 4381.37   1
  -1   5  -4  25098. 3929.45   1
  -1  -5  -5 8038.02 2325.98   1
   1   5   5 6897.21 2289.06   1
  -1  -5  -6 6935.79 2336.73   1
   1   5   6 5114.35 1989.80   1
  -1  -5  -7 2661.61 1800.77   1
   1   5   7 2740.42 1665.47   1
   1  -6  -6 -189.58 1618.90   1
  -1  -6   6 1047.95 1069.72   1
   1   6  -6  209.29 800.771   1
  -1   6   6  719.76 1480.02   1
   1  -6  -5 4174.70 1929.18   1
  -1  -6   5 2550.84 1457.98   1
   1   6  -5  632.68 1028.11   1
  -1   6   5  709.29 1724.16   1
   1  -6  -4 1701.57 1994.49   1
  -1  -6   4 1009.37 1393.22   1
   1   6  -4  180.90 1251.58   1
  -1   6   4 1779.83 1801.60   1
   1  -6  -3 7947.09 2596.58   1
  -1  -6   3 9057.58 2115.46   1
   1   6  -3 4778.17 1500.41   1
  -1   6   3 9953.15 2753.92   1
   1  -6  -2  25211. 4546.70   1
  -1  -6   2  27355. 4331.77   1
   1   6  -2  22913. 3885.36   1
  -1   6   2  26848. 4676.21   1
   1  -6  -1 4662.44 2135.30   1
  -1  -6   1 4323.50 1506.47   1
   1   6  -1 4042.43 1511.16   1
  -1   6   1 2777.62 1686.41   1
   1  -6   0 2648.94 1556.63   1
  -1  -6   0 -217.83 1276.66   1
   1   6   0 1977.95 1255.72   1
  -1   6   0 1164.51 1523.83   1
   1  -6   1 3775.14 1603.19   1
  -1  -6  -1 1577.29 1445.02   1
   1   6   1  664.37 1209.97   1
  -1   6  -1 -1212.2 1690.00   1
   1  -6   2 1252.41 1758.33   1
  -1  -6  -2  631.85 1607.60   1
   1   6   2 3794.43 1897.22   1
  -1   6  -2 2602.64 1786.99   1
   1  -6   3 3890.88 1842.65   1
  -1  -6  -3 2841.00 1993.66   1
   1   6   3  762.47 1785.34   1
  -1   6  -3 -536.51 1513.09   1
   1  -6   4 -295.12 1172.50   1
  -1  -6  -4  746.76 1896.39   1
   1   6   4 2708.18 1688.34   1
  -1   6  -4  551.67 1232.02   1
   1  -6   5 1693.30 1244.14   1
  -1  -6  -5 -453.84 1675.39   1
   1   6   5 4045.19 1875.72   1
  -1   6  -5 4913.19 1511.99   1
   1  -7  -3 1073.30 1678.97   1
  -1  -7   3 -986.22 1463.49   1
   1   7  -3  -42.82 1056.76   1
  -1   7   3 -2269.5 1780.93   1
   1  -7  -2 -4059.0 1763.57   1
  -1  -7   2 1228.99 1561.03   1
   1   7  -2  668.23 1607.88   1
  -1   7   2  944.34 1753.92   1
   1  -7  -1  637.92 1986.50   1
  -1  -7   1 2472.03 1371.45   1
   1   7  -1 2174.43 1403.97   1
  -1   7   1 2626.34 1597.68   1
   1  -7   0 5150.17 1912.37   1
  -1  -7   0 3937.72 1609.53   1
   1   7   0 2907.13 1451.91   1
  -1   7   0 3235.05 1518.60   1
   1  -7   1 2172.77 1494.35   1
  -1  -7  -1 -183.47 1246.07   1
   1   7   1 1071.92 1352.44   1
  -1   7  -1 -950.67 1121.24   1
   1  -7   2  545.05 1434.83   1
  -1  -7  -2  858.64 1314.13   1
   1   7   2 -313.86 1401.76   1
  -1   7  -2 2430.14 1453.02   1
   2   0 -11 2829.98 1192.06   1
  -2   0  11 4364.83 1534.86   1
   2   0 -10 1095.89 1190.13   1
  -2   0  10  795.26 1148.52   1
   2   0  -9 1634.06 1453.02   1
  -2   0   9 -1365.1 1208.87   1
   2   0  -8  10240. 2059.79   1
  -2   0   8 8454.11 1773.21   1
   2   0  -7 4827.77 1390.74   1
  -2   0   7 7886.46 1707.08   1
   2   0  -6  239.68 969.688   1
  -2   0   6 2247.45 1100.03   1
   2   0  -5 2777.62 1067.24   1
  -2   0   5 1450.81 1288.23   1
   2   0  -4  30422. 4386.88   1
  -2   0   4  26412. 3863.32   1
   2   0  -2 187793.  24087.   1
  -2   0   2 178479.  22918.   1
   2   0   9 2381.92 1715.35   1
   2  -1 -11 2201.98 1407.82   1
  -2  -1  11 1327.64 1260.40   1
   2   1 -11 3064.20 1253.79   1
  -2   1  11 2448.33 1536.79   1
   2  -1 -10 -1151.6 1575.36   1
  -2  -1  10 1122.35 1185.17   1
   2   1 -10  880.68 1087.90   1
  -2   1  10  866.35 1692.20   1
   2  -1  -9  670.43 1569.85   1
  -2  -1   9 6503.16 1644.80   1
   2   1  -9 2854.78 1262.33   1
  -2   1   9 -635.44 1535.96   1
   2  -1  -8 2973.27 1444.47   1
  -2  -1   8  360.71 1086.80   1
   2   1  -8 2538.99 964.728   1
  -2   1   8 2736.01 1487.46   1
   2  -1  -7 2678.42 1267.57   1
  -2  -1   7 6373.65 1414.99   1
   2   1  -7 1530.45 866.354   1
  -2   1   7 2202.53 1276.38   1
   2  -1  -6 8426.56 1877.10   1
  -2  -1   6 9247.72 1669.60   1
   2   1  -6 5119.86 1194.82   1
  -2   1   6 7671.53 1806.83   1
   2  -1  -5  33866. 4910.44   1
  -2  -1   5  44172. 5899.69   1
   2   1  -5  41582. 5571.78   1
  -2   1   5  46707. 6536.23   1
   2  -1  -4  39157. 5646.18   1
  -2  -1   4  38964. 5219.06   1
   2   1  -4  36291. 4891.15   1
  -2   1   4  50510. 7178.28   1
   2  -1  -3 109810.  14423.   1
  -2  -1   3 118352.  15180.   1
   2   1  -3 109589.  14084.   1
  -2   1   3 140369.  18355.   1
   2  -1  -2 245494.  31579.   1
  -2   1   2 204767.  26503.   1
   2  -1  -1 190769.  24566.   1
  -2   1   1 222375.  28603.   1
  -2  -1  -4 111711.  14629.   1
   2   1   4 144558.  18815.   1
  -2  -1  -5 5629.64 1757.23   1
   2   1   5 5715.07 1864.42   1
  -2  -1  -6 4717.55 1594.38   1
   2   1   6 6899.97 1883.71   1
  -2  -1  -7  12056. 2432.90   1
   2   1   7 9614.21 2247.17   1
  -2  -1  -8  11524. 2447.50   1
   2   1   8  11860. 2667.95   1
  -2  -1  -9 3055.94 1626.07   1
   2   1   9 2841.00 2032.79   1
   2  -2 -10 2827.22 1536.51   1
  -2  -2  10  894.46 1067.51   1
   2   2 -10 2816.20 1076.05   1
  -2   2  10 2270.04 1561.03   1
   2  -2  -9 1587.21 1687.52   1
  -2  -2   9 2305.32 1074.40   1
   2   2  -9 1955.91 1070.82   1
  -2   2   9 2560.48 1756.96   1
   2  -2  -8  14467. 2934.69   1
  -2  -2   8  15258. 2365.66   1
   2   2  -8  15169. 2321.30   1
  -2   2   8  13654. 2691.65   1
   2  -2  -7  15001. 2882.33   1
  -2  -2   7  12676. 1960.59   1
   2   2  -7  13770. 2069.44   1
  -2   2   7  16101. 2951.22   1
   2  -2  -6 133260.  17633.   1
  -2  -2   6 140066.  17939.   1
   2   2  -6 156627.  20044.   1
  -2   2   6 140562.  18562.   1
   2  -2  -5  37035. 5469.82   1
  -2  -2   5  34830. 4563.24   1
   2   2  -5  42243. 5502.89   1
  -2   2   5  32488. 4960.04   1
   2  -2  -4 214467.  27886.   1
  -2  -2   4 229760.  29264.   1
   2   2  -4 238137.  30339.   1
  -2   2   4 215376.  28052.   1
   2  -2  -3  36126. 5351.33   1
  -2   2   3  28079. 4535.68   1
   2  -2  -2 161119.  21058.   1
  -2   2   2  65114. 9176.07   1
   2  -2  -1  56379. 7798.28   1
  -2  -2   1  60154. 7889.22   1
   2   2  -1  53982. 7142.46   1
  -2   2   1  67897. 9311.10   1
   2  -2   0 351061.  44916.   1
  -2  -2   0 280793.  35905.   1
   2   2   0 311931.  39873.   1
  -2   2   0 252301.  32433.   1
  -2  -2  -1  24649. 3788.92   1
   2   2   1  29016. 4356.57   1
  -2  -2  -2 127225.  16644.   1
   2   2   2 140810.  18402.   1
  -2  -2  -3  49876. 7032.23   1
   2   2   3  49435. 7043.26   1
  -2  -2  -4 233232.  30146.   1
   2   2   4 194709.  25315.   1
  -2  -2  -5 100937.  13502.   1
   2   2   5 136622.  18027.   1
  -2  -2  -6  15230. 2976.02   1
   2   2   6 9608.70 2503.17   1
  -2  -2  -7  14271. 2907.13   1
   2   2   7  16316. 3199.23   1
  -2  -2  -8 3601.54 1932.49   1
   2   2   8 -180.32 1790.57   1
  -2  -2  -9  663.54 1681.73   1
   2   2   9 -1661.9 1656.93   1
   2  -3 -10  224.41 1375.58   1
  -2  -3  10  -14.50 1153.21   1
   2   3 -10 1737.67 992.008   1
  -2   3  10  -54.06 1872.41   1
   2  -3  -9  906.03 1699.92   1
  -2  -3   9 1051.53 1193.99   1
   2   3  -9 1762.19 1024.80   1
  -2   3   9 2934.69 1809.31   1
   2  -3  -8 3596.03 1827.50   1
  -2  -3   8 3339.76 1082.39   1
   2   3  -8 3585.01 996.968   1
  -2   3   8 2400.11 1686.69   1
   2  -3  -7 8842.65 2259.02   1
  -2  -3   7 8878.47 1432.90   1
  -2   3   7 7324.32 2023.97   1
   2  -3  -6  12034. 2600.16   1
  -2   3   6  11403. 2518.05   1
   2  -3  -5  24059. 4017.63   1
  -2   3   5  32736. 5092.31   1
   2  -3  -4  40066. 6111.87   1
  -2  -3   4  26988. 3524.38   1
   2   3  -4  26514. 3472.03   1
  -2   3   4  29044. 4825.02   1
   2  -3  -3  61808. 8715.89   1
  -2  -3   3  55470. 7181.03   1
   2   3  -3  55552. 7194.81   1
  -2   3   3  54671. 7880.95   1
   2  -3  -2 7522.73 2162.30   1
  -2  -3   2 6809.03 1270.05   1
   2   3  -2 9925.59 1643.98   1
  -2   3   2 8029.75 2243.59   1
   2  -3   0 101901.  13549.   1
  -2  -3   0  95095.  12441.   1
   2   3   0  94461.  12367.   1
  -2   3   0 114549.  15175.   1
   2  -3   1  63985. 8748.96   1
  -2  -3  -1  80022.  10672.   1
   2   3   1  91347.  12045.   1
  -2   3  -1  69551. 9462.65   1
  -2  -3  -2  36071. 5249.37   1
   2   3   2  34748. 5017.91   1
  -2  -3  -3  22331. 3590.52   1
   2   3   3  21640. 3474.78   1
  -2  -3  -4 3069.71 1455.50   1
   2   3   4 2126.75 1555.25   1
  -2  -3  -5 -131.17 1642.60   1
   2   3   5 1011.02 1605.40   1
  -2  -3  -6  14858. 2920.91   1
   2   3   6 8743.45 2176.08   1
  -2  -3  -7 4072.74 1803.53   1
   2   3   7 6194.54 1925.32   1
  -2  -3  -8 9845.68 2442.27   1
   2   3   8 8112.42 2275.83   1
   2  -4  -9  -27.97 1504.55   1
  -2   4   9  699.92 1706.80   1
   2  -4  -8 2286.30 1666.30   1
  -2   4   8  -38.05 1925.87   1
   2  -4  -7 8525.76 2359.60   1
  -2   4   7 4083.77 1895.84   1
   2  -4  -6 3378.34 1786.17   1
  -2   4   6 1806.56 1467.90   1
   2  -4  -5  18796. 3524.38   1
  -2  -4   5  16396. 2341.97   1
   2   4  -5  20521. 2818.96   1
  -2   4   5  20377. 3868.83   1
   2  -4  -4  19868. 3731.05   1
  -2  -4   4  21722. 3036.65   1
   2   4  -4  20411. 2896.11   1
  -2   4   4  30036. 4979.33   1
   2  -4  -3  22102. 3841.27   1
  -2  -4   3  24704. 3477.54   1
   2   4  -3  27388. 3769.63   1
  -2   4   3  21824. 3852.30   1
   2  -4  -2  16462. 3207.49   1
  -2  -4   2  18581. 2774.87   1
   2   4  -2  15552. 2409.48   1
  -2   4   2  10612. 2548.63   1
   2  -4  -1  32406. 5095.06   1
  -2  -4   1  49160. 6646.45   1
   2   4  -1  48195. 6558.27   1
  -2   4   1  53706. 7718.37   1
   2  -4   0  20303. 3571.23   1
  -2  -4   0  12882. 2208.04   1
   2   4   0 4356.57 1282.72   1
  -2   4   0 1023.42 1776.80   1
   2  -4   1 3899.14 1717.55   1
  -2  -4  -1 2736.29 1272.80   1
   2   4   1 5370.62 1515.84   1
  -2   4  -1 6249.65 1814.82   1
   2  -4   2 8809.58 2024.52   1
  -2  -4  -2 9550.83 1904.93   1
   2   4   2 9410.30 1943.78   1
  -2   4  -2 6359.87 1742.08   1
  -2  -4  -3 4659.68 1496.83   1
   2   4   3 4965.55 1518.05   1
  -2  -4  -4  14695. 2683.11   1
   2   4   4  10898. 2286.85   1
  -2  -4  -5 -928.91 1429.87   1
   2   4   5  -66.60 1311.65   1
  -2  -4  -6 7561.30 2061.72   1
   2   4   6 4695.50 1725.82   1
  -2  -4  -7 7812.06 2123.45   1
   2   4   7  10799. 2511.16   1
  -2  -4  -8 2111.60 1496.83   1
   2   4   8 5907.96 1882.33   1
   2  -5  -8  775.42 1842.38   1
  -2   5   8 1206.67 1452.46   1
   2  -5  -7  528.24 1646.18   1
  -2  -5   7  242.16 844.309   1
  -2   5   7 3168.91 1959.49   1
   2  -5  -6 6354.36 2236.43   1
  -2  -5   6 7260.95 1484.98   1
   2   5  -6 6252.41 1265.91   1
  -2   5   6 7467.61 2255.16   1
   2  -5  -5 3538.16 2094.51   1
  -2  -5   5 8928.07 1669.05   1
   2   5  -5 3620.83 1108.84   1
  -2   5   5 7958.11 2518.87   1
   2  -5  -4 4486.08 2620.83   1
  -2  -5   4  696.33 984.292   1
   2   5  -4 2017.36 1185.72   1
  -2   5   4 2277.76 1995.04   1
   2  -5  -3 3328.74 1824.47   1
  -2  -5   3 3292.92 1181.59   1
   2   5  -3 3028.38 1133.37   1
  -2   5   3 6282.72 1950.67   1
   2  -5  -2 4673.46 2059.52   1
  -2  -5   2 4329.01 1310.00   1
   2   5  -2 -429.32 1102.51   1
  -2   5   2 1384.68 1751.72   1
   2  -5  -1  291.54 1430.14   1
  -2  -5   1   60.98 1127.03   1
   2   5  -1 2158.17 1155.96   1
  -2   5   1 1825.29 1865.25   1
   2  -5   0  13814. 2871.31   1
  -2  -5   0 9107.18 1926.42   1
   2   5   0  12885. 2392.67   1
  -2   5   0  14836. 2893.36   1
   2  -5   1 1294.02 1594.65   1
  -2  -5  -1 1676.77 1189.86   1
   2   5   1 4031.41 1536.79   1
  -2   5  -1 2959.49 1521.63   1
   2  -5   2 1286.03 1393.22   1
  -2  -5  -2 -534.86 1167.54   1
   2   5   2 2590.24 1424.63   1
  -2   5  -2 -136.81 1009.09   1
   2  -5   3 8076.60 1983.19   1
  -2  -5  -3  10860. 2451.91   1
   2   5   3  14792. 2780.38   1
  -2   5  -3 9572.88 2233.40   1
  -2  -5  -4 1491.87 1557.45   1
   2   5   4 3188.20 1648.11   1
  -2  -5  -5 9608.70 2444.20   1
   2   5   5 9898.03 2419.67   1
  -2  -5  -6 3797.19 1682.56   1
   2   5   6 8751.71 2335.63   1
   2  -6  -6 4216.03 1863.32   1
  -2  -6   6 3805.45 1100.58   1
   2   6  -6 4384.12 1099.75   1
  -2   6   6 2339.76 1699.92   1
   2  -6  -5 7542.02 2451.09   1
  -2  -6   5 4786.44 1358.22   1
   2   6  -5 5833.56 1390.74   1
  -2   6   5 7790.02 2446.13   1
   2  -6  -4  16724. 3827.50   1
  -2  -6   4  10518. 2075.50   1
   2   6  -4  14395. 2596.30   1
  -2   6   4 8980.43 2962.25   1
   2  -6  -3 2614.49 1945.71   1
  -2  -6   3 3670.43 1376.69   1
   2   6  -3 5117.11 1456.32   1
  -2   6   3 2322.40 1682.28   1
   2  -6  -2 5811.51 2354.92   1
  -2  -6   2 3846.79 1375.58   1
   2   6  -2 2967.76 1435.93   1
  -2   6   2 2920.91 1665.47   1
   2  -6  -1 4618.35 1982.09   1
  -2  -6   1 5232.84 1687.79   1
   2   6  -1 3981.81 1643.70   1
  -2   6   1 4130.61 1905.48   1
   2  -6   0 1461.01 1915.68   1
  -2  -6   0 1508.68 1528.79   1
   2   6   0 3083.49 1481.67   1
  -2   6   0 1345.00 1902.45   1
   2  -6   1 1372.55 1621.66   1
  -2  -6  -1 7046.01 2063.10   1
   2   6   1 3036.65 1539.82   1
  -2   6  -1 2680.07 1558.55   1
   2  -6   2 6266.18 1988.98   1
  -2  -6  -2  349.41 1396.53   1
   2   6   2 4340.03 1728.02   1
  -2   6  -2 6428.76 1968.31   1
   2  -6   3  120.64 1364.29   1
  -2  -6  -3 2365.39 1657.76   1
   2   6   3 1679.52 1661.89   1
  -2   6  -3  527.69 1422.70   1
   2  -6   4 2410.03 1451.91   1
  -2  -6  -4 3455.49 1839.07   1
   2   6   4 -1942.1 1574.26   1
  -2   6  -4  -30.78 1411.41   1
  -2  -6  -5 1488.56 1461.56   1
   2   6   5 -515.02 1462.66   1
   2  -7  -3 4769.90 2329.84   1
  -2  -7   3 2293.47 1169.47   1
   2   7  -3  713.14 1036.10   1
  -2   7   3 1945.99 1497.38   1
   2  -7  -2 5863.87 1993.11   1
  -2  -7   2 5254.89 1550.29   1
   2   7  -2 4659.68 1483.33   1
  -2   7   2 5659.96 1951.78   1
   2  -7  -1 1416.37 1648.39   1
  -2  -7   1 1058.97 1238.91   1
   2   7  -1 3036.65 1455.50   1
  -2   7   1 6026.45 1993.38   1
   2  -7   0 2838.24 1775.97   1
  -2  -7   0 8622.20 2133.37   1
   2   7   0 3620.83 1529.62   1
  -2   7   0 2763.84 1761.64   1
   2   7   1 7679.79 2041.33   1
  -2   7  -1 3623.58 1640.40   1
   2  -7   2 -1241.4 1373.66   1
   2   7   2 -552.77 1321.02   1
  -2   7  -2 -1028.4 1316.06   1
   3   0 -11  920.09 1442.54   1
  -3   0  11 -1109.7 1190.13   1
   3   0 -10  476.99 1386.33   1
  -3   0  10 -529.35 1268.39   1
   3   0  -9  19983. 3320.47   1
  -3   0   9  25743. 4034.17   1
   3   0  -8  13103. 2435.38   1
  -3   0   8  10295. 2062.27   1
   3   0  -7 1777.07 1103.06   1
  -3   0   7 1463.49 1196.47   1
   3   0  -6  21673. 3535.41   1
  -3   0   6  19399. 3196.47   1
   3   0  -5  11882. 2235.05   1
  -3   0   5 9718.92 2065.86   1
   3   0  -3  56820. 7657.75   1
  -3   0   3  42822. 6004.40   1
   3  -1 -11 5285.20 1746.48   1
  -3  -1  11 6847.61 1717.00   1
   3   1 -11 4915.95 1432.90   1
  -3   1  11 4827.77 1769.08   1
   3  -1 -10 2300.08 1540.37   1
  -3  -1  10 1012.40 1340.86   1
   3   1 -10  756.13 1142.19   1
  -3   1  10  484.71 1461.56   1
   3  -1  -9 3973.54 1653.07   1
  -3  -1   9 3499.58 1298.70   1
   3   1  -9 3224.03 1173.88   1
  -3   1   9 1397.35 1442.82   1
   3  -1  -8 4439.24 1662.99   1
  -3  -1   8 2774.87 1130.89   1
   3   1  -8  633.23 942.407   1
  -3   1   8  998.62 1368.14   1
   3  -1  -7 6701.56 1755.30   1
  -3  -1   7 6332.32 1454.67   1
   3  -1  -6  44255. 6456.32   1
  -3  -1   6  43070. 5935.51   1
   3   1  -6  44751. 6161.47   1
  -3   1   6  52163. 7484.15   1
   3  -1  -5 1923.39 1437.58   1
  -3  -1   5 3248.83 1403.69   1
   3   1  -5 6227.60 1591.62   1
  -3   1   5 1408.93 1573.16   1
   3   1  -4  96197.  12513.   1
  -3   1   4 113805.  15136.   1
   3  -1  -3 173987.  22612.   1
  -3   1   3 165913.  21656.   1
   3  -1  -2  32846. 4880.13   1
  -3   1   2  33012. 5191.51   1
   3   1   8 2478.37 1784.24   1
  -3  -1  -9 3265.36 1537.34   1
   3   1   9 2034.17 1560.21   1
   3  -2 -10  199.17 1357.12   1
  -3  -2  10 -273.35 1170.84   1
   3   2 -10 1841.28 1054.01   1
  -3   2  10 1775.14 1526.59   1
   3  -2  -9 2170.29 1585.01   1
  -3  -2   9  616.97 1071.92   1
   3   2  -9  977.13 1061.17   1
  -3   2   9 2357.95 1634.06   1
   3  -2  -8 4698.26 1866.35   1
  -3  -2   8 7153.48 1459.90   1
   3   2  -8 6114.63 1322.95   1
  -3   2   8 8018.73 2178.56   1
   3  -2  -7  33480. 5152.93   1
  -3  -2   7  26952. 3772.39   1
   3   2  -7  27396. 3844.03   1
  -3   2   7  30449. 4915.95   1
   3  -2  -6  54946. 7916.77   1
  -3  -2   6  40314. 5417.47   1
   3   2  -6  38716. 5216.31   1
  -3   2   6  52466. 7663.26   1
   3  -2  -5  16079. 3116.56   1
  -3  -2   5  17492. 2519.42   1
   3   2  -5  22133. 3075.22   1
  -3   2   5  12067. 2635.71   1
   3  -2  -4  56627. 8029.75   1
  -3   2   4  61504. 8721.40   1
   3  -2  -3 195426.  25467.   1
  -3   2   3 197079.  25740.   1
   3  -2  -2 108349.  14412.   1
  -3   2   2 103499.  13869.   1
   3  -2  -1  13574. 2729.95   1
  -3   2   1  26999. 4403.41   1
   3   2   3 180793.  23431.   1
  -3  -2  -4 127363.  16721.   1
   3   2   4 101488.  13497.   1
  -3  -2  -5  50758. 7158.99   1
   3   2   5  49049. 6993.66   1
  -3  -2  -6  -88.78 1502.34   1
   3   2   6 1571.23 1727.20   1
  -3  -2  -7 5960.31 2017.36   1
   3   2   7 2517.50 1722.24   1
  -3  -2  -8 6946.81 1989.80   1
   3   2   8 5469.82 2240.28   1
   3  -3 -10 2299.25 1448.33   1
  -3  -3  10  893.91 833.011   1
   3   3 -10 1761.92 761.917   1
  -3   3  10 3113.80 1732.98   1
   3  -3  -9 4403.41 1943.23   1
  -3  -3   9 1095.34 921.465   1
   3   3  -9 3089.00 905.483   1
  -3   3   9 3755.85 1862.22   1
   3  -3  -8 1776.80 1778.73   1
  -3  -3   8 4750.62 1079.64   1
   3   3  -8 3314.96 880.958   1
  -3   3   8 4014.88 1906.03   1
   3  -3  -7  15266. 3168.91   1
  -3  -3   7  13009. 1871.04   1
   3   3  -7  11199. 1642.60   1
  -3   3   7  14398. 3146.87   1
   3  -3  -6  25734. 4477.81   1
  -3  -3   6  15406. 2076.60   1
   3   3  -6  14731. 2004.68   1
  -3   3   6  16330. 3348.03   1
   3  -3  -5 6205.56 1943.51   1
  -3   3   5 5800.49 2034.17   1
   3  -3  -4  24481. 4171.94   1
  -3   3   4  31110. 5004.13   1
   3  -3  -3  47506. 6999.17   1
  -3   3   3  21287. 3934.96   1
   3  -3  -2  43648. 6467.34   1
  -3  -3   2  37007. 5103.33   1
   3   3  -2  58446. 7707.35   1
  -3   3   2  45770. 6784.23   1
   3  -3  -1  41995. 6076.05   1
  -3  -3   1  40727. 5602.09   1
   3   3  -1  36043. 5026.17   1
  -3   3   1  43648. 6387.43   1
   3   3   0  36401. 5232.84   1
  -3   3   0  33618. 5152.93   1
  -3  -3  -1  21516. 3403.14   1
   3   3   1  18928. 3204.74   1
  -3  -3  -2  13902. 2680.90   1
   3   3   2  18336. 3224.03   1
  -3  -3  -3 9501.23 2275.83   1
   3   3   3 8864.69 2239.46   1
  -3  -3  -4  16646. 3100.02   1
   3   3   4  28906. 4601.81   1
  -3  -3  -5  17231. 3251.58   1
   3   3   5  19705. 3576.74   1
  -3  -3  -6  22855. 4009.37   1
   3   3   6  21990. 3957.01   1
  -3  -3  -7  18005. 3505.09   1
   3   3   7  15652. 3447.23   1
  -3  -3  -8 5370.62 2092.59   1
   3   3   8 5125.37 2187.65   1
   3  -4  -9 5726.09 1998.62   1
  -3  -4   9 5230.09 991.732   1
   3   4  -9 3981.81 835.215   1
  -3   4   9 4235.32 1933.59   1
   3  -4  -8 2105.81 1779.83   1
  -3  -4   8 3449.98 775.695   1
  -3   4   8 1215.76 1788.09   1
   3  -4  -7 7781.75 2524.38   1
  -3   4   7 4893.91 2534.30   1
   3  -4  -6  12102. 3036.65   1
  -3  -4   6  17492. 2298.70   1
   3   4  -6  20471. 2674.56   1
  -3   4   6  22973. 4312.48   1
   3  -4  -5  11146. 2691.37   1
  -3  -4   5  18292. 2505.65   1
   3   4  -5  17862. 2433.73   1
  -3   4   5  19923. 3758.61   1
   3  -4  -4 8677.31 2402.59   1
  -3  -4   4  11540. 1784.79   1
   3   4  -4 9098.92 1435.93   1
  -3   4   4  11000. 2647.01   1
   3  -4  -3 4373.10 1753.65   1
  -3  -4   3 3571.23 1022.59   1
   3   4  -3 1499.03 807.660   1
  -3   4   3 -2745.1 2020.39   1
   3  -4  -2  20603. 3742.07   1
  -3  -4   2  11640. 2025.07   1
   3   4  -2 9278.03 1760.54   1
  -3   4   2 8057.31 2325.71   1
   3  -4  -1 3108.29 1741.52   1
  -3  -4   1 7343.61 1656.10   1
   3   4  -1 4907.68 1314.13   1
  -3   4   1 3758.61 1728.85   1
   3  -4   0  17942. 3224.03   1
  -3  -4   0  22800. 3551.94   1
   3   4   0  22742. 3521.63   1
  -3   4   0  19667. 3419.67   1
  -3  -4  -2 3025.62 1515.02   1
   3   4   2 4698.26 1545.33   1
  -3  -4  -3 8434.82 2149.35   1
   3   4   3 8817.85 2069.71   1
  -3  -4  -4 -792.23 1912.65   1
   3   4   4  552.22 1586.94   1
  -3  -4  -5 8261.22 2305.87   1
   3   4   5 5880.40 1872.97   1
  -3  -4  -6 3824.74 1971.06   1
   3   4   6 2119.59 1613.94   1
  -3  -4  -7 8936.34 2314.96   1
   3   4   7 5356.84 1906.31   1
   3  -5  -8 -650.59 1651.42   1
  -3   5   8  270.16 1613.67   1
   3  -5  -7 8175.80 2752.00   1
  -3  -5   7 4530.17 871.314   1
   3   5  -7 4971.06 935.518   1
  -3   5   7 6332.32 2413.06   1
   3  -5  -6  26230. 4869.11   1
  -3  -5   6  22337. 3089.00   1
   3   5  -6  18826. 2649.76   1
  -3   5   6  22643. 4395.15   1
   3  -5  -5 2561.58 1868.56   1
  -3  -5   5 1990.08 903.554   1
   3   5  -5 3416.92 955.359   1
  -3   5   5 3312.20 2087.63   1
   3  -5  -4  778.73 1814.27   1
  -3  -5   4 5535.96 1254.61   1
   3   5  -4 2791.40 1018.46   1
  -3   5   4 4618.35 1983.74   1
   3  -5  -3 5792.22 2127.03   1
  -3  -5   3 5321.02 1270.05   1
   3   5  -3 4990.35 1214.93   1
  -3   5   3 1625.79 1779.83   1
   3  -5  -2 4684.48 2111.05   1
  -3  -5   2 6817.30 1467.90   1
   3   5  -2 8969.40 1755.58   1
  -3   5   2 4182.97 2055.39   1
   3  -5  -1 6417.74 2189.86   1
  -3  -5   1  11358. 2023.97   1
   3   5  -1 8875.71 1752.27   1
  -3   5   1 5183.24 1960.87   1
   3  -5   0  17548. 3356.29   1
  -3  -5   0  13078. 2308.62   1
   3   5   0  10490. 2044.64   1
  -3   5   0  11681. 2503.99   1
   3  -5   1 1020.11 1366.22   1
  -3  -5  -1 2107.74 1210.53   1
   3   5   1 3080.74 1236.70   1
  -3   5  -1 2149.35 1470.65   1
   3  -5   2  11513. 2547.53   1
  -3  -5  -2 6492.14 1694.68   1
   3   5   2 4896.66 1526.59   1
  -3   5  -2 9261.50 2174.15   1
   3  -5   3   -5.88 1386.88   1
  -3  -5  -3  706.81 1428.49   1
   3   5   3 -1063.4 1461.83   1
  -3  -5  -4 4400.66 1714.24   1
   3   5   4 2505.10 1488.01   1
  -3  -5  -5 2035.55 1360.15   1
   3   5   5 1903.00 1491.04   1
  -3  -5  -6 1206.39 1516.67   1
   3   5   6  613.12 1290.16   1
   3  -6  -6 1595.20 1756.68   1
  -3  -6   6  698.54 786.993   1
   3   6  -6 2359.88 981.261   1
  -3   6   6 4706.53 2419.12   1
   3  -6  -5  11334. 2989.80   1
  -3  -6   5 6211.07 1422.15   1
   3   6  -5 8079.35 1574.81   1
  -3   6   5  10383. 2666.02   1
   3  -6  -4 -3218.5 1828.05   1
  -3  -6   4 -382.75 1017.08   1
   3   6  -4  292.37 1045.47   1
  -3   6   4  295.67 1698.26   1
   3  -6  -3  315.79 2067.79   1
  -3  -6   3 1252.96 1324.88   1
   3   6  -3 1698.54 1168.64   1
  -3   6   3 2962.25 1830.25   1
   3  -6  -2 1961.70 2152.93   1
  -3  -6   2 5690.27 1641.50   1
   3   6  -2 4667.95 1584.73   1
  -3   6   2 5640.67 2343.34   1
   3  -6  -1 4604.57 2116.28   1
  -3  -6   1  11314. 2197.02   1
   3   6  -1 8509.22 1979.61   1
  -3   6   1 8219.89 2381.92   1
   3  -6   0 5362.35 2286.85   1
  -3  -6   0 1747.31 1333.70   1
   3   6   0 1438.41 1357.12   1
  -3   6   0 -273.66 1999.72   1
   3  -6   1 1748.96 1588.31   1
  -3  -6  -1  541.20 1473.96   1
   3   6   1 1434.55 1381.92   1
  -3   6  -1 1250.76 1548.08   1
   3  -6   2 1045.74 1591.07   1
  -3  -6  -2  -89.78 1382.75   1
   3   6   2 2523.01 1640.40   1
  -3   6  -2  381.92 1288.78   1
   3  -6   3 3640.12 1543.12   1
  -3  -6  -3 1266.46 1409.75   1
   3   6   3 3130.34 1595.20   1
  -3   6  -3 2680.07 1597.13   1
   3  -6   4 2489.39 1313.03   1
  -3  -6  -4 3248.83 1585.28   1
   3   6   4 2710.94 1429.59   1
   3  -7  -2  593.55 1364.01   1
  -3  -7   2 2380.54 1235.33   1
   3   7  -2 1952.88 1282.72   1
  -3   7   2 1131.99 1621.93   1
   3  -7  -1  134.06 1578.67   1
  -3  -7   1 -160.29 1244.69   1
   3   7  -1 1708.46 1306.97   1
  -3   7   1 2713.42 1703.77   1
   3  -7   0 2863.04 1767.43   1
  -3  -7   0 3127.58 1452.19   1
   3   7   0 1701.57 1219.07   1
  -3   7   0  341.97 1508.40   1
   4   0 -11  17368. 3135.85   1
  -4   0  11  10198. 2221.82   1
   4   0 -10  18906. 3309.45   1
  -4   0  10  26646. 4295.95   1
   4   0  -9 -517.50 1398.46   1
  -4   0   9   -0.47 1385.50   1
   4   0  -8 1149.35 1758.61   1
  -4   0   8 -1569.3 1268.67   1
   4   0  -7 2317.44 1121.52   1
  -4   0   7  745.11 1357.67   1
   4   0  -5  17096. 2953.98   1
  -4   0   5  22298. 3573.98   1
   4   0  -4  40645. 5772.94   1
  -4   0   4  26729. 4152.66   1
   4  -1 -11 1605.40 1446.68   1
  -4  -1  11 3981.81 1517.22   1
   4   1 -11 5169.46 1488.56   1
  -4   1  11 4345.55 1720.03   1
   4  -1 -10 2813.44 1639.29   1
  -4  -1  10 4475.06 1526.31   1
   4   1 -10 8784.78 1946.54   1
  -4   1  10 3736.56 1794.71   1
   4  -1  -9 4298.70 1991.73   1
  -4  -1   9 4907.68 1594.93   1
   4   1  -9 3899.14 1288.78   1
  -4   1   9 8828.87 2459.35   1
   4  -1  -8  28355. 4667.95   1
  -4  -1   8  16484. 2857.53   1
   4   1  -8 8696.60 1997.79   1
  -4   1   8 6514.18 2014.33   1
   4  -1  -7 1713.14 1341.42   1
  -4  -1   7 5015.15 1459.35   1
   4   1  -7 2095.34 1101.13   1
  -4   1   7 1822.26 1538.16   1
   4   1  -6 6213.83 1539.27   1
  -4   1   6 9749.23 2342.24   1
   4  -1  -5  42656. 6205.56   1
  -4  -1   5  36291. 5183.24   1
   4  -1  -4 379719.  48746.   1
  -4   1   4 391568.  50289.   1
   4  -1  -3  80849.  10898.   1
  -4   1   3  69275. 9592.17   1
   4  -2 -10 -1143.3 1467.07   1
  -4  -2  10  295.67 1073.02   1
   4   2 -10  411.68 927.527   1
  -4   2  10 2623.86 1733.81   1
   4  -2  -9 5607.60 2107.19   1
  -4  -2   9 4960.04 1510.61   1
   4   2  -9 3703.50 1281.62   1
  -4   2   9 4464.04 1983.74   1
   4   2  -8  841.28 1023.15   1
  -4   2   8 6588.59 2471.48   1
   4  -2  -7 3929.45 1677.60   1
  -4  -2   7 1891.15 1033.89   1
   4   2  -7 3284.65 1052.08   1
  -4   2   7 1659.96 1517.22   1
   4  -2  -6 7668.77 2044.36   1
  -4  -2   6 8410.02 1572.06   1
   4   2  -6 5483.60 1260.40   1
  -4   2   6 7952.60 2239.73   1
   4  -2  -5  20876. 3725.54   1
  -4   2   5  40645. 6233.12   1
   4  -2  -4  11284. 2706.53   1
  -4   2   4  10366. 2694.13   1
   4  -2  -3 128300.  17010.   1
  -4   2   3 133177.  17685.   1
   4  -2  -2  34720. 5323.78   1
  -4   2   2  17407. 3397.63   1
   4   2   7 6745.65 2060.90   1
  -4  -2  -8  420.23 1404.24   1
   4   2   8 1336.45 1474.23   1
   4  -3 -10  -51.45 1321.30   1
  -4  -3  10  390.74 785.891   1
   4   3 -10 -577.29 773.491   1
  -4   3  10  814.00 1548.08   1
   4  -3  -9 7555.79 2348.58   1
  -4  -3   9 4408.92 1232.02   1
   4   3  -9 3279.14 1005.23   1
  -4   3   9 4331.77 2074.95   1
   4  -3  -8 7095.61 2476.99   1
  -4  -3   8 3728.30 1059.24   1
   4  -3  -7 2111.87 1603.47   1
  -4  -3   7  691.37 713.143   1
   4   3  -7  931.39 762.193   1
  -4   3   7 -450.26 1578.39   1
   4  -3  -6 1362.91 1778.45   1
  -4   3   6 3102.78 1918.71   1
   4  -3  -5  15630. 3155.14   1
  -4   3   5  24100. 4329.01   1
   4  -3  -4 9887.01 2525.21   1
  -4   3   4  14459. 3080.74   1
   4  -3  -3  25528. 4235.32   1
  -4   3   3  26939. 4444.75   1
   4  -3  -2  52659. 7558.55   1
  -4   3   2  54037. 7762.46   1
   4  -3  -1  19410. 3562.96   1
  -4   3   1  12910. 2951.22   1
   4  -3   0  10780. 2329.29   1
   4   3   2  18184. 3033.89   1
  -4  -3  -3 6905.48 1855.88   1
   4   3   3  12670. 2471.48   1
  -4  -3  -4 7382.19 2006.89   1
   4   3   4 5053.73 1778.17   1
  -4  -3  -5 9683.10 2298.70   1
   4   3   5 8713.14 2259.57   1
  -4  -3  -6 4667.95 1938.00   1
   4   3   6 1850.65 1823.37   1
  -4  -3  -7 5199.77 1786.17   1
   4   3   7 8784.78 2395.70   1
   4  -4  -9 4590.79 2047.39   1
  -4  -4   9 4689.99 928.905   1
   4   4  -9 5139.15 964.728   1
  -4   4   9 6762.19 2329.01   1
   4  -4  -8 5872.14 2519.70   1
  -4  -4   8 5654.44 941.581   1
   4   4  -8 4769.90 847.616   1
  -4   4   8 5533.20 2545.05   1
   4  -4  -7  15566. 3441.72   1
  -4   4   7  18063. 3651.14   1
   4  -4  -6  14067. 3163.40   1
  -4   4   6  14037. 3201.98   1
   4  -4  -5 -1679.2 1836.87   1
  -4   4   5 2918.16 1877.65   1
   4  -4  -4 8575.36 2479.19   1
  -4   4   4 6166.98 2211.08   1
   4  -4  -3  13591. 2893.36   1
   4   4  -3  13637. 2147.70   1
  -4   4   3  13453. 2942.96   1
   4  -4  -2  22262. 3929.45   1
  -4  -4   2  21730. 3224.03   1
   4   4  -2  22086. 3292.92   1
  -4   4   2  23640. 4047.94   1
   4  -4  -1 3692.47 1779.83   1
  -4  -4   1 5318.26 1448.06   1
   4   4  -1 1097.55 1192.06   1
  -4   4   1 2874.07 1662.99   1
   4  -4   0  30118. 4750.62   1
  -4  -4   0  36980. 5304.49   1
   4   4   0  34169. 4973.82   1
  -4   4   0  34968. 5298.98   1
   4  -4   1 8131.71 2052.91   1
  -4  -4  -1 6968.86 1802.15   1
   4   4   1  10328. 2232.57   1
  -4  -4  -2 2755.58 1684.48   1
   4   4   2 4384.12 1670.16   1
  -4  -4  -3 2612.84 1895.84   1
   4   4   3 2313.31 1744.00   1
  -4  -4  -4 3923.94 2085.70   1
   4   4   4 7437.30 2320.20   1
  -4  -4  -5  608.71 2160.10   1
   4   4   5 4466.79 2165.88   1
  -4  -4  -6 7362.90 2455.77   1
   4   4   6 8244.69 2412.23   1
   4  -5  -8  888.67 2147.97   1
  -4   5   8 2387.16 2062.00   1
   4  -5  -7 1361.81 1754.75   1
  -4  -5   7 1492.15 624.138   1
   4   5  -7 1156.24 526.315   1
  -4   5   7  880.96 1711.49   1
   4  -5  -6 7704.59 2554.97   1
  -4  -5   6  11270. 1788.92   1
   4   5  -6 8870.20 1459.08   1
  -4   5   6 7007.43 2363.46   1
   4  -5  -5  17052. 3623.58   1
  -4  -5   5  22521. 3273.63   1
   4   5  -5  21287. 3050.42   1
  -4   5   5  19077. 3866.07   1
   4  -5  -4  417.19 2114.63   1
  -4  -5   4 -166.99 1352.16   1
   4   5  -4 4530.17 1209.42   1
  -4   5   4 1534.31 2258.47   1
   4   5  -3 3546.43 1295.95   1
  -4   5   3 8093.13 2470.10   1
   4  -5  -2 9465.41 2810.69   1
  -4  -5   2 7693.57 1658.03   1
   4   5  -2 5318.26 1423.26   1
  -4   5   2 4585.28 2061.45   1
   4  -5  -1  13703. 3100.02   1
  -4  -5   1  13387. 2362.63   1
   4   5  -1  11714. 2161.20   1
  -4   5   1  16255. 3144.11   1
   4  -5   0 1395.98 1622.21   1
  -4  -5   0 -121.77 1309.73   1
   4   5   0 5654.44 1622.76   1
  -4   5   0  811.79 1437.31   1
   4   5   1 4436.48 1604.02   1
  -4   5  -1 3089.00 1681.18   1
   4  -5   2  349.68 1572.06   1
  -4  -5  -2 2044.36 1747.86   1
   4   5   2 -304.49 1488.01   1
  -4   5  -2 2166.99 1596.31   1
  -4  -5  -3  842.38 1834.66   1
   4   5   3 2876.82 1477.54   1
  -4  -5  -4  459.35 1726.92   1
   4   5   4  876.00 1577.02   1
  -4  -5  -5 2173.60 1564.34   1
   4   5   5 -238.36 1405.07   1
   4  -6  -6  -19.80 1597.96   1
  -4  -6   6 -197.11 671.259   1
   4   6  -6   77.62 695.508   1
  -4   6   6 -1346.4 1378.62   1
   4  -6  -5 -669.88 1768.53   1
  -4  -6   5 -252.66 814.824   1
   4   6  -5  496.28 809.589   1
  -4   6   5 -187.08 1458.25   1
   4  -6  -4 -193.25 1824.19   1
  -4  -6   4  446.40 951.776   1
   4   6  -4 2085.42 1036.10   1
  -4   6   4 1972.99 1905.48   1
   4  -6  -3 2284.37 2309.17   1
  -4  -6   3 2788.64 1140.53   1
   4   6  -3  403.97 1077.43   1
  -4   6   3 2956.73 2245.52   1
   4  -6  -2 2965.00 2340.31   1
  -4  -6   2  915.68 1068.06   1
   4   6  -2 5756.40 1548.63   1
  -4   6   2 4461.28 2119.31   1
   4  -6  -1 2783.13 1779.55   1
  -4  -6   1 2796.91 1260.13   1
   4   6  -1 3080.74 1260.40   1
  -4   6   1 -2145.2 1930.56   1
   4  -6   0 2841.00 1939.38   1
  -4  -6   0 3375.58 1387.16   1
   4   6   0 -233.40 1270.87   1
  -4   6   0  476.44 1606.78   1
   4   6   1 3805.45 1486.63   1
  -4   6  -1 3031.14 1633.23   1
   4  -6   2 2620.00 1586.39   1
  -4  -6  -2 2566.54 1555.25   1
   4   6   2 3133.09 1435.38   1
  -4   6  -2 3394.87 1582.53   1
   4  -6   3    7.91 1328.19   1
  -4  -6  -3 1234.22 1561.86   1
   4   6   3  369.25 1183.52   1
  -4   6  -3 -2256.0 1177.73   1
   5   0 -11  19592. 3579.49   1
  -5   0  11  13549. 2821.71   1
   5   0 -10  33039. 5210.80   1
  -5   0  10  29870. 4802.97   1
   5   0  -9 2934.69 1454.67   1
  -5   0   9 3797.19 1566.27   1
   5   0  -8 8784.78 2143.56   1
  -5   0   8  11648. 2539.82   1
   5   0  -7 6155.96 1681.45   1
  -5   0   7 7553.04 1930.83   1
   5   0  -6  46183. 6569.30   1
  -5   0   6  52080. 7318.81   1
   5   0  -5  10824. 2338.93   1
  -5   0   5 9889.77 2248.00   1
   5   0  -4 -2040.2 1742.63   1
   5   1 -11 6635.43 1879.03   1
   5  -1 -10 4750.62 2087.63   1
  -5  -1  10  10912. 2348.85   1
   5   1 -10 9267.01 2120.97   1
  -5   1  10 8148.24 2202.53   1
   5  -1  -9  820.89 1439.24   1
  -5  -1   9 2297.88 1579.50   1
   5   1  -9 1545.05 1174.70   1
  -5   1   9 1024.52 1664.64   1
   5  -1  -8  24282. 4075.50   1
  -5  -1   8  18145. 3108.29   1
   5   1  -8  25241. 3929.45   1
  -5   1   8  25343. 4287.68   1
   5  -1  -7  22841. 3882.61   1
  -5  -1   7  21573. 3427.94   1
   5   1  -7  21403. 3342.52   1
  -5   1   7  19565. 3538.16   1
   5  -1  -6  15938. 3025.62   1
  -5  -1   6  13354. 2471.75   1
   5   1  -6  12993. 2334.25   1
  -5   1   6  11562. 2535.96   1
   5  -1  -5  15977. 2942.96   1
   5   1  -5  10777. 2225.40   1
  -5   1   5 9093.41 2388.53   1
   5  -1  -4 6500.41 1998.34   1
  -5   1   4 5899.69 2146.59   1
   5  -1  -3 119923.  15834.   1
  -5   1   3 133094.  17539.   1
   5  -2 -10 4213.28 1952.05   1
  -5  -2  10 5717.82 1596.86   1
   5   2 -10 4028.65 1387.16   1
  -5   2  10 3959.76 2243.59   1
   5  -2  -9 3345.27 1630.75   1
  -5  -2   9 1434.28 1354.09   1
   5   2  -9 5067.51 1470.10   1
  -5   2   9 3678.70 1975.20   1
   5  -2  -8 9360.70 2378.06   1
  -5  -2   8 4345.55 1467.90   1
   5   2  -8 4524.66 1347.20   1
  -5   2   8 7203.08 2276.11   1
   5   2  -7 8908.78 1711.76   1
  -5   2   7 4031.41 1915.13   1
   5  -2  -6 9010.74 2367.32   1
  -5   2   6 9399.27 2466.79   1
   5  -2  -5  -47.51 1702.95   1
  -5   2   5 2523.01 1850.92   1
   5  -2  -4  22367. 3841.27   1
  -5   2   4  24142. 4127.85   1
   5  -2  -3 4535.68 2187.10   1
  -5   2   3  14602. 3163.40   1
   5  -2  -2  52714. 7489.66   1
  -5   2   2  54643. 7823.08   1
   5  -3 -10 3546.43 1905.48   1
  -5  -3  10  403.14 917.332   1
   5   3 -10 1217.14 905.207   1
  -5   3  10 1778.73 1988.15   1
   5  -3  -9 1248.28 1712.87   1
  -5  -3   9 3135.85 1025.35   1
   5   3  -9 1119.04 930.834   1
  -5   3   9 1130.61 1601.82   1
   5  -3  -8 6982.63 2298.70   1
  -5  -3   8 5794.98 1342.52   1
   5   3  -8 6833.83 1397.08   1
  -5   3   8 2382.20 1750.62   1
   5  -3  -7 3083.49 1907.96   1
  -5   3   7 4312.48 2105.54   1
   5  -3  -6  16159. 3394.87   1
  -5   3   6  12417. 2973.27   1
   5  -3  -5 9512.25 2468.45   1
  -5   3   5  11670. 2835.49   1
   5  -3  -4  21620. 3874.34   1
  -5   3   4  12563. 2799.67   1
   5  -3  -3 1798.84 1534.58   1
  -5   3   3 2918.16 1728.02   1
   5  -3  -2  25291. 4257.37   1
  -5   3   2  28520. 4643.15   1
   5  -3  -1 9415.81 2402.31   1
  -5   3   1  11000. 2590.52   1
   5   3   6  -23.56 1419.95   1
   5  -4  -9 -1337.8 1275.28   1
  -5  -4   9  565.17 641.498   1
   5   4  -9  323.50 658.583   1
  -5   4   9 1293.74 1394.32   1
   5  -4  -8 1354.92 1782.86   1
  -5   4   8 1340.31 1858.09   1
   5  -4  -7 8793.05 2569.58   1
  -5   4   7  11816. 3047.67   1
   5  -4  -6 7619.17 2603.47   1
  -5   4   6 3240.56 2132.54   1
   5  -4  -5  15685. 3441.72   1
  -5   4   5  18947. 3788.92   1
   5  -4  -4 4309.72 2015.98   1
  -5   4   4 4541.19 1959.77   1
   5  -4  -3 6888.94 2367.59   1
  -5   4   3  13621. 2989.80   1
   5  -4  -2 1990.90 1840.73   1
  -5   4   2 -1012.4 1582.25   1
   5  -4  -1  13185. 2854.78   1
  -5   4   1 5872.14 2039.68   1
   5  -4   0 5949.29 2052.35   1
  -5   4   0 6660.23 1966.93   1
   5   4   1 3028.38 1432.90   1
  -5  -4  -2 1629.65 1675.67   1
   5   4   2 1947.64 1505.10   1
  -5  -4  -3 3816.47 1891.70   1
   5   4   3 2984.29 1606.78   1
  -5  -4  -4 2912.65 1815.93   1
   5   4   4 2122.90 1779.83   1
  -5  -4  -5 -535.68 1490.22   1
   5   4   5 -1419.1 1576.47   1
   5  -5  -7 5971.34 2288.51   1
  -5   5   7 4323.50 1947.64   1
   5  -5  -6 8597.40 2558.28   1
  -5   5   6 7778.99 2497.66   1
   5  -5  -5 2735.74 2339.49   1
  -5   5   5 7627.44 2696.88   1
   5  -5  -4 7238.90 2896.11   1
   5   5  -4  12951. 2169.74   1
  -5   5   4 9407.54 2838.24   1
   5  -5  -3 5208.04 2368.97   1
  -5  -5   3 4822.26 1451.09   1
   5   5  -3 8093.13 1775.97   1
  -5   5   3 8881.23 2548.08   1
   5  -5  -2  13059. 3122.07   1
  -5  -5   2  10041. 1992.28   1
   5   5  -2  17242. 2896.11   1
  -5   5   2  13610. 3011.85   1
   5  -5  -1 4618.35 2233.12   1
  -5  -5   1 2115.46 1322.95   1
   5   5  -1 -505.65 1362.36   1
  -5   5   1 1399.83 1551.94   1
   5  -5   0 9479.19 2540.64   1
  -5  -5   0 4348.30 1661.61   1
   5   5   0 2476.71 1589.69   1
  -5   5   0 3463.76 2245.52   1
   5  -5   1 9027.27 2418.57   1
  -5  -5  -1 3560.21 2014.88   1
   5   5   1 3392.12 1618.08   1
  -5   5  -1 3538.16 1827.77   1
  -5  -5  -2 7919.53 2361.25   1
   5   5   2 6569.30 2001.10   1
  -5  -5  -3 1675.94 1777.35   1
   5   5   3 -1097.3 1817.03   1
  -5  -5  -4 1750.34 1524.39   1
   5   5   4  605.95 1786.72   1
   5  -6  -5  755.58 1727.20   1
  -5  -6   5 2907.13 1197.30   1
   5   6  -5 1345.27 824.469   1
  -5   6   5 -1387.2 1935.24   1
   5  -6  -4 3089.00 2134.19   1
  -5  -6   4 5048.22 1478.37   1
   5   6  -4 1961.97 977.954   1
  -5   6   4 1945.71 2065.03   1
   5  -6  -3 2857.53 2209.15   1
  -5  -6   3 5704.05 1611.46   1
   5   6  -3 3359.05 1315.79   1
  -5   6   3 4621.10 2012.67   1
   5  -6  -2 -675.12 1931.94   1
  -5  -6   2 1081.01 1452.19   1
   5   6  -2  -28.88 1264.81   1
  -5   6   2  223.67 1476.99   1
   5  -6  -1 5114.35 2104.43   1
  -5  -6   1 2904.38 1676.77   1
   5   6  -1 1593.55 1204.46   1
  -5   6   1 2469.82 1460.73   1
   5  -6   0 -2524.1 1286.85   1
  -5  -6   0 -1528.8 1751.44   1
   5   6   0 -2322.1 1557.45   1
  -5   6   0 1423.81 1402.59   1
   5  -6   1 -354.09 1524.94   1
  -5  -6  -1 3091.76 1699.09   1
   5   6   1  210.33 1487.74   1
  -5   6  -1 2595.48 1689.72   1
   5  -6   2 -537.06 1297.05   1
  -5  -6  -2 1993.38 1435.93   1
   5   6   2  457.70 1455.22   1
  -5   6  -2 1602.64 1469.00   1
   6   0 -10 9718.92 2237.80   1
  -6   0  10 9581.14 2306.69   1
   6   0  -9  19727. 3620.83   1
  -6   0   9  26324. 4373.10   1
   6   0  -8 2721.68 1767.15   1
  -6   0   8 1391.29 1405.62   1
   6   0  -6 5891.42 1768.53   1
  -6   0   6 2059.52 1494.90   1
   6   0  -5  28327. 4323.50   1
  -6   0   5  27308. 4351.06   1
   6  -1 -10 4125.10 1700.19   1
  -6  -1  10 4381.37 1668.78   1
   6   1 -10 3979.05 1413.06   1
  -6   1  10 4042.43 1830.25   1
   6  -1  -9  10083. 2562.69   1
  -6  -1   9  11088. 2481.40   1
   6   1  -9 6676.76 1828.05   1
  -6   1   9  14828. 3226.78   1
   6  -1  -8 5513.91 2137.78   1
  -6  -1   8  12811. 2570.68   1
   6   1  -8  14158. 2668.78   1
  -6   1   8  17060. 3287.40   1
   6  -1  -7 5745.38 1954.26   1
  -6  -1   7 9826.39 2201.98   1
   6   1  -7 5976.85 1632.68   1
  -6   1   7 7715.62 2131.44   1
   6  -1  -6  13398. 2649.49   1
  -6  -1   6  18997. 3149.62   1
   6   1  -6  18082. 2992.56   1
  -6   1   6  16007. 3097.27   1
   6  -1  -5  13329. 2721.68   1
  -6   1   5  16746. 3298.43   1
   6  -1  -4 6266.18 2049.87   1
  -6   1   4 4681.73 2023.97   1
   6  -2 -10 2490.22 1362.08   1
  -6  -2  10 2597.96 1337.01   1
   6   2 -10 2357.95 1223.20   1
  -6   2  10  387.71 1577.02   1
   6  -2  -9 1054.84 1555.25   1
  -6  -2   9 1494.63 1392.39   1
   6   2  -9  589.97 1191.51   1
  -6   2   9 1635.16 1731.33   1
   6  -2  -8  12080. 3097.27   1
  -6  -2   8 8608.42 2032.51   1
   6   2  -8 7365.66 1724.16   1
  -6   2   8 7770.73 2702.39   1
   6  -2  -7  20934. 3819.23   1
   6   2  -7  22105. 3378.34   1
  -6   2   7  18165. 3585.01   1
   6  -2  -6 6550.01 2067.51   1
  -6   2   6 5646.18 1990.90   1
   6  -2  -5 4786.44 1824.47   1
  -6   2   5 4607.33 1819.51   1
   6  -2  -4 5084.04 1927.25   1
  -6   2   4 8244.69 2309.17   1
   6  -2  -3 5599.33 2051.25   1
  -6   2   3 7161.75 2256.82   1
   6  -3  -9 9515.01 2417.74   1
  -6  -3   9 7478.64 1556.35   1
   6   3  -9  11529. 1928.35   1
  -6   3   9 6547.25 2260.68   1
   6  -3  -8 7401.48 2453.02   1
   6   3  -8 4466.79 1328.74   1
  -6   3   8 7023.97 2677.87   1
   6  -3  -7 9016.25 2734.08   1
  -6   3   7 8685.58 2735.74   1
   6  -3  -6 1435.10 1990.08   1
  -6   3   6 7701.84 2397.35   1
   6  -3  -5 8906.03 2410.03   1
  -6   3   5 9327.63 2527.97   1
   6  -3  -4 7225.12 2124.27   1
  -6   3   4 3425.18 1930.28   1
   6  -3  -3 6304.76 2015.98   1
  -6   3   3 9633.50 2460.18   1
   6  -3  -2 7982.91 2194.54   1
  -6   3   2 9476.43 2436.76   1
   6  -4  -8  523.01 1639.29   1
  -6   4   8 -947.64 1926.15   1
   6  -4  -7 3367.32 2186.28   1
  -6   4   7  409.48 2233.40   1
   6  -4  -6  11083. 2940.20   1
  -6   4   6 6373.65 2429.04   1
   6  -4  -5 1509.23 2072.75   1
  -6   4   5 2989.80 2044.91   1
   6  -4  -4  44668. 6941.30   1
  -6   4   4  42711. 6605.12   1
   6  -4  -3  16117. 3248.83   1
  -6   4   3  20548. 3728.30   1
   6  -4  -2  13196. 3050.42   1
  -6   4   2  24453. 4188.48   1
   6  -4  -1 5356.84 1998.90   1
  -6   4   1 7933.31 2135.57   1
   6  -5  -7 -2178.6 1670.16   1
  -6   5   7 1790.57 1853.95   1
   6  -5  -6 1411.68 2006.34   1
  -6   5   6  745.93 2243.04   1
   6  -5  -5 6773.21 2534.30   1
  -6   5   5 2726.64 2128.68   1
   6  -5  -4 3025.62 2085.70   1
  -6   5   4 5348.58 2222.37   1
   6  -5  -3 6439.78 2462.66   1
  -6   5   3 7037.75 2293.19   1
   6  -5  -2 2473.13 2071.64   1
  -6   5   2 1529.62 1445.02   1
   6  -5  -1 5067.51 2448.61   1
  -6   5   1 2937.45 1882.06   1
   6  -5   0 2337.56 1692.20   1
   6   5   0 1870.21 1583.08   1
  -6   5   0 1240.84 1673.74   1
   6   5   1 1369.25 1493.25   1
  -6  -5  -2 -722.51 1501.79   1
   6   5   2 1969.69 1518.87   1
  -6  -5  -3 3673.18 1631.03   1
   6   5   3 2720.03 1548.08   1
   6  -6  -3 2058.69 1696.06   1
  -6  -6   3 1245.52 1133.92   1
   6   6  -3 -605.40 1177.46   1
  -6   6   3  126.37 1536.51   1
   6  -6  -2 1367.04 1571.51   1
  -6  -6   2 1534.31 1198.68   1
   6   6  -2  674.29 1232.57   1
  -6   6   2 2788.64 1626.62   1
   6  -6  -1 -282.72 1392.94   1
  -6  -6   1 1923.12 1219.07   1
  -6  -6   0 1638.47 1472.03   1
  -6   6   0   54.51 1638.47   1
   7   0 -10 3879.85 1618.08   1
  -7   0  10 -818.68 1261.50   1
   7   0  -9 1631.30 1639.84   1
  -7   0   9  859.74 1610.36   1
   7   0  -8 1023.42 1742.08   1
  -7   0   8 3824.74 1694.96   1
   7   0  -7  15949. 3077.98   1
  -7   0   7 9892.52 2433.45   1
   7   0  -6 6869.65 1902.18   1
  -7   0   6 4940.75 1950.67   1
   7  -1 -10 1541.19 1393.50   1
  -7  -1  10 2516.94 1480.02   1
   7   1 -10 1067.24 1310.00   1
  -7   1  10 1932.21 1754.20   1
   7  -1  -9  11237. 2564.34   1
  -7  -1   9 8963.89 2166.44   1
   7   1  -9  10185. 2264.81   1
  -7   1   9 8407.27 2361.25   1
   7  -1  -8  22571. 4045.19   1
  -7  -1   8  11593. 2615.87   1
   7   1  -8  10378. 2281.34   1
  -7   1   8  19868. 3810.96   1
   7  -1  -7  45715. 6784.23   1
  -7  -1   7  47809. 6836.59   1
   7   1  -7  50262. 7090.10   1
  -7   1   7  42739. 6483.87   1
   7  -1  -6  25586. 4232.57   1
  -7   1   6  25789. 4389.63   1
   7  -1  -5 2435.38 1621.38   1
  -7   1   5 -1339.5 1959.22   1
   7  -2  -9 2470.10 1578.12   1
  -7  -2   9 4069.99 1535.41   1
   7   2  -9 3146.87 1212.73   1
  -7   2   9 4329.01 1884.26   1
   7  -2  -8 3254.34 2082.94   1
  -7  -2   8 6640.94 1890.33   1
   7   2  -8 6696.05 1730.23   1
  -7   2   8 1494.07 1894.46   1
   7  -2  -7  13731. 3064.20   1
  -7   2   7  13431. 3144.11   1
   7  -2  -6  31910. 5117.11   1
  -7   2   6  28686. 4836.04   1
   7  -2  -5  11303. 2668.78   1
  -7   2   5 9046.56 2517.50   1
   7  -2  -4 1037.75 1684.48   1
  -7   2   4 -210.17 1903.55   1
   7  -3  -9 -805.18 1504.82   1
  -7  -3   9  489.67 1062.28   1
   7   3  -9 -610.08 1007.16   1
  -7   3   9 -539.54 1924.50   1
   7  -3  -8  115.82 1624.96   1
  -7   3   8 3111.05 1979.61   1
   7  -3  -7 3237.80 2120.14   1
  -7   3   7 3433.45 2026.45   1
   7  -3  -6  11279. 2901.62   1
  -7   3   6  16616. 3648.38   1
   7  -3  -5 1785.34 1965.28   1
  -7   3   5 1503.17 1960.59   1
   7  -3  -4 -1587.8 1937.45   1
  -7   3   4 -516.12 2066.13   1
   7  -3  -3 6302.01 2345.55   1
  -7   3   3 4885.64 2236.15   1
  -7   4   8  418.02 2110.77   1
   7  -4  -7 2116.01 1801.87   1
  -7   4   7  209.81 1841.28   1
   7  -4  -6  558.28 1690.55   1
  -7   4   6 1115.46 1815.10   1
   7  -4  -5 7721.13 2678.97   1
  -7   4   5 7767.97 2469.00   1
   7  -4  -4  25858. 4610.08   1
  -7   4   4  16382. 3485.81   1
   7  -4  -3 4604.57 2460.46   1
  -7   4   3 7015.70 2400.93   1
   7  -4  -2 1193.72 2178.01   1
  -7   4   2 6729.12 2384.40   1
   7  -5  -6 -302.29 1874.34   1
  -7   5   6 1514.74 1882.06   1
   7  -5  -5 3455.49 1853.95   1
  -7   5   5 -2413.9 1661.34   1
   7  -5  -4 1426.01 1754.20   1
  -7   5   4 1491.87 1685.59   1
   7  -5  -3 1779.28 1652.80   1
  -7   5   3  949.85 1744.00   1
   7  -5  -2 3689.72 1997.24   1
  -7   5   2 5230.09 1885.09   1
   7  -5  -1  686.69 1601.27   1
  -7   5   1 -932.49 1700.74   1
   8   0  -9 2730.50 1434.00   1
  -8   0   9 4238.08 1721.41   1
   8   0  -8 7134.19 2193.44   1
  -8   0   8 6740.14 2263.71   1
   8   0  -7 1108.02 1926.15   1
  -8   0   7 2645.91 2306.97   1
   8  -1  -9 1166.16 1685.59   1
  -8  -1   9 -682.83 1618.35   1
   8   1  -9 -621.93 1227.89   1
  -8   1   9  395.98 1480.85   1
   8  -1  -8 2100.30 1568.75   1
  -8  -1   8 1427.39 1818.13   1
   8   1  -8 1791.68 1591.35   1
  -8   1   8 1598.79 1790.85   1
   8  -1  -7  227.56 1953.70   1
  -8   1   7 3480.29 2245.52   1
   8  -1  -6 6635.43 2217.14   1
  -8   1   6 4334.52 2132.27   1
   8  -2  -9 -725.54 1510.06   1
  -8  -2   9  417.75 1281.34   1
   8   2  -9 -1645.6 993.386   1
  -8   2   9  257.92 1611.74   1
   8  -2  -8  11336. 2646.73   1
  -8   2   8 8633.22 2467.90   1
   8  -2  -7 2708.18 1871.31   1
  -8   2   7  227.28 1878.48   1
   8  -2  -6  19479. 3722.79   1
  -8   2   6  15065. 3375.58   1
   8  -2  -5 9007.98 2449.16   1
  -8   2   5  11124. 2824.47   1
   8  -3  -8 -826.12 1532.38   1
  -8   3   8 1449.16 1658.86   1
   8  -3  -7 4188.48 1935.79   1
  -8   3   7 2915.40 1830.53   1
   8  -3  -6 8476.16 2357.67   1
  -8   3   6 2898.87 2085.15   1
   8  -3  -5  971.34 1697.16   1
  -8   3   5 2111.05 2127.03   1
   8  -3  -4 9917.32 2707.91   1
  -8   3   4  15076. 3306.69   1
   8  -4  -6 1748.96 1525.76   1
  -8   4   6 -2147.4 1705.98   1
   8  -4  -5  410.31 1379.17   1
  -8   4   5  216.64 1740.42   1
   8  -4  -4 3042.16 2199.50   1
  -8   4   4 -661.61 1656.38   1
   8  -4  -3  321.58 1829.15   1
  -8   4   3 2289.06 2072.47   1
   8  -4  -2 3543.67 1748.69   1
  -8   5   3 2508.68 1728.57   1
   9   0  -8  566.55 1351.34   1
  -9   0   8  -85.01 1936.90   1
   9  -1  -8 3954.25 1747.59   1
  -9   1   8 1715.62 2005.23   1
   9  -1  -7 -372.83 1472.58   1
  -9   1   7 -128.99 1966.38   1
   9  -1  -6 3995.59 1682.56   1
   9  -2  -8  664.37 1365.39   1
  -9   2   8 1842.10 1691.65   1
   9  -2  -7 1141.36 1819.78   1
  -9   2   7  487.46 2022.04   1
   9  -2  -6 5527.69 1987.87   1
  -9   2   6  11648. 2909.89   1
   9  -2  -5 7145.21 2200.60   1
  -9   3   7 1057.87 1742.90   1
   9  -3  -6 1972.72 1632.96   1
  -9   3   6 3257.09 1779.28   1
   9  -3  -5 2753.65 1872.14   1
  -9   3   5 2601.82 1892.53   1
   9  -3  -4 4725.81 1859.46   1
   9  -4  -4 2596.58 1832.18   1
  -9   4   4 3607.05 1971.62   1
   9  -4  -3  966.38 1426.29   1
  10  -1  -7  799.39 1437.86   1
  10  -2  -6  909.89 1559.66   1
   0   0   0      0.    0.00   0
;
_shelx_hkl_checksum   42647

